[General]
sim-time-limit = 10s

############### Statistics ###############
output-scalar-file = ${resultdir}/${configname}/${repetition}.sca
output-vector-file = ${resultdir}/${configname}/${repetition}.vec
**.vector-recording = false
seed-set = ${repetition}

############### Resource Blocks ###############
**.numRbDl = 6
**.numRbUl = 6
**.binder.numBands = 6 # this value should be kept equal to the number of RBs

[Config UrbanMacrocell5G]
network = networks.UrbanMacro5G
sim-time-limit = 20s
repeat = 10
seed-set = ${repetition}
num-rngs = 2
seed-1-mt = 123

output-scalar-file = ${resultdir}/${configname}/${sched}-${repetition}.sca
output-vector-file = ${resultdir}/${configname}/${sched}-${repetition}.vec
**.vector-recording = false

############### Micro Cell ###############
**.microCell.cellInfo.microCell = true

############### Transmission Power ###############
**.ueTxPower = 24
**.eNodeBTxPower = 46
**.microTxPower = 30

############### UEs ###############
**.numUe = 6

# Conecting UEs to eNodeB
**.ue[0].macCellId = 1
**.ue[0].masterId = 1
**.ue[1].macCellId = 2
**.ue[1].masterId = 2
**.ue[2].macCellId = 2
**.ue[2].masterId = 2
**.ue[3].macCellId = 2
**.ue[3].masterId = 2
**.ue[4].macCellId = 2
**.ue[4].masterId = 2
**.ue[5].macCellId = 2
**.ue[5].masterId = 2

# Scheduler
**.schedulingDisciplineUl = ${sched= "MAXCI", "DRR", "PF", "ALLOCATOR_BESTFIT"}
**.schedulingDisciplineDl = ${sched}

############### Mobility ###############

# eNodeB
**.eNB.cellularNic.channelModel[*].scenario = "URBAN_MACROCELL"

# Microcell
**.microCell.cellularNic.channelModel[*].scenario = "URBAN_MICROCELL"

# UEs
**.ue[0].cellularNic.channelModel[*].scenario = "URBAN_MACROCELL"
**.ue[1].cellularNic.channelModel[*].scenario = "URBAN_MICROCELL"
**.ue[2].cellularNic.channelModel[*].scenario = "URBAN_MICROCELL"
**.ue[3].cellularNic.channelModel[*].scenario = "URBAN_MICROCELL"
**.ue[4].cellularNic.channelModel[*].scenario = "URBAN_MICROCELL"
**.ue[5].cellularNic.channelModel[*].scenario = "URBAN_MICROCELL"

############### Mobility ###############

# eNodeB
*.eNB.mobility.initialX = 500m
*.eNB.mobility.initialY = 500m
*.eNB.mobility.initialZ = 0m
*.eNB.mobility.initFromDisplayString = false
*.eNB.mobility.constraintAreaMaxX = inf m
*.eNB.mobility.constraintAreaMaxY = inf m
*.eNB.mobility.constraintAreaMaxZ = inf m
*.eNB.mobility.constraintAreaMinX = -inf m
*.eNB.mobility.constraintAreaMinY = -inf m
*.eNB.mobility.constraintAreaMinZ = -inf m
#*.eNB.mobilityType = "MassMobility"
#*.eNB.mobility.changeInterval = 0.1s#truncnormal(2s, 0.5s)
#*.eNB.mobility.angleDelta = 0deg#normal(0deg, 30deg)
#*.eNB.mobility.speed = 0mps#truncnormal(15mps, 5mps)

#*.eNB.status.initialStatus = "UP"



# UEs

*.ue[*].mobilityType = "StationaryMobility"#"MassMobility"
*.ue[*].mobility.initFromDisplayString = false
#*.ue[*].mobility.changeInterval = 0.1s#truncnormal(2s, 0.5s)
#*.ue[*].mobility.angleDelta = normal(0deg, 30deg)
*.scenarioManager.script = xmldoc("scenario.xml")
#*.ue[*].mobility.speed = truncnormal(15mps, 5mps)
*.ue[0].mobility.initialX = 419.12325912955396m
*.ue[0].mobility.initialY = 481.2794571150647m
*.ue[0].mobility.initialZ = 0.0m
*.ue[1].mobility.initialX = 746.1902138313051m
*.ue[1].mobility.initialY = 724.32539783289m
*.ue[1].mobility.initialZ = 0.0m
*.ue[2].mobility.initialX = 712.6804351525707m
*.ue[2].mobility.initialY = 710.2657973870564m
*.ue[2].mobility.initialZ = 0.0m
*.ue[3].mobility.initialX = 750.8568744938651m
*.ue[3].mobility.initialY = 694.0281492348498m
*.ue[3].mobility.initialZ = 0.0m
*.ue[4].mobility.initialX = 704.053834864235m
*.ue[4].mobility.initialY = 686.8027360462274m
*.ue[4].mobility.initialZ = 0.0m
*.ue[5].mobility.initialX = 767.0611038459083m
*.ue[5].mobility.initialY = 706.502981643468m
*.ue[5].mobility.initialZ = 0.0m
*.ue[*].mobility.initFromDisplayString = false
*.ue[*].mobility.constraintAreaMaxX = inf m
*.ue[*].mobility.constraintAreaMaxY = inf m
*.ue[*].mobility.constraintAreaMaxZ = inf m
*.ue[*].mobility.constraintAreaMinX = -inf m
*.ue[*].mobility.constraintAreaMinY = -inf m
*.ue[*].mobility.constraintAreaMinZ = -inf m

# Microcell
*.microCell.mobility.initialX = 711.4515923921631m
*.microCell.mobility.initialY = 669.8418901148484m
*.microCell.mobility.initialZ = 0m
*.microCell.mobility.initFromDisplayString = false
*.microCell.mobility.constraintAreaMaxX = inf m
*.microCell.mobility.constraintAreaMaxY = inf m
*.microCell.mobility.constraintAreaMaxZ = inf m
*.microCell.mobility.constraintAreaMinX = -inf m
*.microCell.mobility.constraintAreaMinY = -inf m
*.microCell.mobility.constraintAreaMinZ = -inf m

############### Apps ###############
*.ue[*].numApps = 2
*.server.numApps = 2 * 6 * 1

# VoIP UL
*.ue[*].app[0].typename="VoIPSender"
*.ue[*].app[0].PacketSize = default
*.ue[*].app[0].destAddress = "server"
*.ue[*].app[0].destPort = 4000 + ancestorIndex(1) #Pega o valor id de ue
*.ue[*].app[0].localPort = 4888
*.ue[*].app[0].startTime = 0.01s
*.server.app[0..5].typename="VoIPReceiver"
*.server.app[0..5].localPort = 4000 + ancestorIndex(0) - 0

# VoIP DL
*.server.app[6..11].typename="VoIPSender"
*.server.app[6..11].PacketSize = default
*.server.app[6..11].destAddress = "ue[" + string(ancestorIndex(0) - 6) + "]"
*.server.app[6..11].destPort = 3000
*.server.app[6..11].localPort = 3088 + ancestorIndex(0)
*.server.app[6..11].startTime = 0.01s
*.ue[*].app[1].typename="VoIPReceiver"
*.ue[*].app[1].localPort = 3000

############### Channel Control ###############
**.propagationModel = "LogNormalShadow"
