#Function: ilp_sliced_ini
#Parameters:
#   filename: ../Network_CCOpMv/_5G/simulations/chosen_seed_321/micro_power_30/ilp_fixed_sliced_5.ini
#   seed: 321
#   size_y: 4000
#   size_x: 4000
#   size_sector: 400
#   n_macros: 1
#   min_sinr: 5
#   repetitions: 2
#   multi_carriers: False
#   slice_time: 1
#   is_micro: True
#   p_size: 1428
#   app: video
#   target_f: 10
#   extra_config_name: video
#   result_dir: Solutions/chosen_seed_321/micro_power_30
#   varying: False
#   network_name: ILPFixedNet5
#   net_dir: _5G/networks/chosen_seed_321/micro_power_30
#   cmdenv_config: True
#   micro_power: 30
#   xml_filename: ilp_move_users-321.sna
#   num_bands: [100]
#Extra = Using 1 macros with 60 ues each. Slicing 10s in 10 different simulations. Using microcells.
[General]
sim-time-limit = 10s

############### Statistics ###############
output-scalar-file = ${resultdir}/${configname}/${repetition}.sca
output-vector-file = ${resultdir}/${configname}/${repetition}.vec
**.vector-recording = false
eventlog-file = ${resultdir}/${configname}/${repetition}.elog
seed-set = ${repetition}

[Config ilp_fixed_sliced_5_video]
network = _5G.networks.chosen_seed_321.micro_power_30.ILPFixedNet5
sim-time-limit = 1s
repeat = 2
seed-set = ${repetition}
num-rngs = 2
seed-1-mt = 321

############### Outputs ###############
**.eNB*.cellularNic.channelModel[*].idRcvdSinr:vector.vector-recording = true
**.eNB*.cellularNic.channelModel[*].rcvdSinr:vector.vector-recording = true
**.app[*].throughput:vector.vector-recording = true
**.app[*].endToEndDelay:vector.vector-recording = true
output-scalar-file = ${resultdir}/${configname}/5-${RBs}-${repetition}-${Slice}.sca
output-vector-file = ${resultdir}/${configname}/5-${RBs}-${repetition}-${Slice}.vec
**.vector-recording = false
eventlog-file = ${resultdir}/${configname}/5-${RBs}-${repetition}-${Slice}.elog

############### Cmdenv ###############
cmdenv-performance-display = false
cmdenv-redirect-output = true
cmdenv-output-file = ${resultdir}/${configname}-cmdout/5-${RBs}-${repetition}-${Slice}.out

############### Snapshots ###############
snapshot-file = ../../../Functions/${configname}-RBs_${RBs}-Slice_${Slice}-5-${repetition}.sna
**.snapshotter.snapshot = false
**.snapshotter.delay = 1.0

############### Transmission Power ###############
**.ueTxPower = 24
**.eNodeBTxPower = 46
**.microTxPower = 30
**.cellularNic.phy.txDirection = "OMNI"

############### Channel Control ###############
**.numComponentCarriers = 1
*.carrierAggregation.componentCarrier[0].carrierFrequency = 0.7GHz

############### Channel Model ###############
**.cellularNic.LteChannelModelType = "MoreInfoChannelModel"
**.cellularNic.channelModel[*].building_height = 20
**.cellularNic.channelModel[*].nodeb_height = 18
**.cellularNic.channelModel[*].ue_height = 1.5
**.cellularNic.channelModel[*].street_wide = 20
**.cellularNic.channelModel[*].fading_type = "JAKES"
**.cellularNic.channelModel[*].extCell_interference = false
**.cellularNic.channelModel[*].antennGainEnB = 18
**.cellularNic.channelModel[*].antennGainMicro = 5
**.cellularNic.channelModel[*].antennaGainUe = -1
**.cellularNic.channelModel[*].bs_noise_figure = 9
**.cellularNic.channelModel[*].cable_loss = 2
**.cellularNic.channelModel[*].componentCarrierIndex = 0
**.cellularNic.channelModel[*].correlation_distance = 50
**.cellularNic.channelModel[*].d2d_interference = true
**.cellularNic.channelModel[*].delay_rms = 363e-9
**.cellularNic.channelModel[*].downlink_interference = false
**.cellularNic.channelModel[*].dynamic_los = false
**.cellularNic.channelModel[*].enable_extCell_los = true
**.cellularNic.channelModel[*].fading = true
**.cellularNic.channelModel[*].fading_paths = 6
**.cellularNic.channelModel[*].fixed_los = false
**.cellularNic.channelModel[*].harqReduction = 0.2
**.cellularNic.channelModel[*].inside_building = false
**.cellularNic.channelModel[*].lambdaMaxTh = 0.2
**.cellularNic.channelModel[*].lambdaMinTh = 0.02
**.cellularNic.channelModel[*].lambdaRatioTh = 20
**.cellularNic.channelModel[*].rsrqScale = 1.0
**.cellularNic.channelModel[*].rsrqShift = 22
**.cellularNic.channelModel[*].shadowing = true
**.cellularNic.channelModel[*].targetBler = 0.01
**.cellularNic.channelModel[*].thermalNoise = -104.5
**.cellularNic.channelModel[*].tolerateMaxDistViolation = true
**.cellularNic.channelModel[*].ue_noise_figure = 7
**.cellularNic.channelModel[*].uplink_interference = false
**.cellularNic.channelModel[*].useRsrqFromLog = false
**.cellularNic.channelModel[*].useTorus = false
**.cellularNic.channelModel[*].num_slice = ${Slice= 0, 1, 2, 3, 4, 5, 6, 7, 8, 9}
**.cellularNic.channelModel[*].num_enbs = ${NumEnbs= 2, 4, 4, 4, 4, 4, 4, 4, 4, 4 ! Slice}

############### Resource Blocks ###############
**.numBands = ${RBs= 100}

############### eNBs ###############
**.eNB0.cellInfo.microCell = true
**.eNB1.cellInfo.microCell = true
**.eNB2.cellInfo.microCell = true
**.eNB3.cellInfo.microCell = true

############### UEs ###############
**.numUe = 60

# Conecting UEs to eNodeB
**.ue[0].macCellId = ${1, 1, 4, 3, 3, 2, 3, 1, 1, 1 ! Slice}
**.ue[0].masterId = ${1, 1, 4, 3, 3, 2, 3, 1, 1, 1 ! Slice}
**.ue[1].macCellId = ${1, 4, 4, 2, 2, 2, 3, 2, 4, 4 ! Slice}
**.ue[1].masterId = ${1, 4, 4, 2, 2, 2, 3, 2, 4, 4 ! Slice}
**.ue[2].macCellId = ${1, 1, 4, 4, 3, 1, 1, 4, 3, 1 ! Slice}
**.ue[2].masterId = ${1, 1, 4, 4, 3, 1, 1, 4, 3, 1 ! Slice}
**.ue[3].macCellId = ${1, 4, 1, 4, 4, 4, 2, 1, 3, 4 ! Slice}
**.ue[3].masterId = ${1, 4, 1, 4, 4, 4, 2, 1, 3, 4 ! Slice}
**.ue[4].macCellId = ${1, 3, 3, 3, 3, 4, 1, 1, 2, 4 ! Slice}
**.ue[4].masterId = ${1, 3, 3, 3, 3, 4, 1, 1, 2, 4 ! Slice}
**.ue[5].macCellId = ${1, 3, 4, 2, 1, 4, 2, 1, 3, 4 ! Slice}
**.ue[5].masterId = ${1, 3, 4, 2, 1, 4, 2, 1, 3, 4 ! Slice}
**.ue[6].macCellId = ${1, 2, 3, 3, 4, 3, 3, 4, 1, 1 ! Slice}
**.ue[6].masterId = ${1, 2, 3, 3, 4, 3, 3, 4, 1, 1 ! Slice}
**.ue[7].macCellId = ${1, 1, 3, 1, 3, 2, 4, 4, 2, 2 ! Slice}
**.ue[7].masterId = ${1, 1, 3, 1, 3, 2, 4, 4, 2, 2 ! Slice}
**.ue[8].macCellId = ${1, 3, 4, 4, 1, 2, 3, 1, 1, 3 ! Slice}
**.ue[8].masterId = ${1, 3, 4, 4, 1, 2, 3, 1, 1, 3 ! Slice}
**.ue[9].macCellId = ${1, 1, 2, 1, 4, 3, 1, 4, 3, 4 ! Slice}
**.ue[9].masterId = ${1, 1, 2, 1, 4, 3, 1, 4, 3, 4 ! Slice}
**.ue[10].macCellId = ${1, 1, 3, 1, 3, 1, 4, 4, 3, 1 ! Slice}
**.ue[10].masterId = ${1, 1, 3, 1, 3, 1, 4, 4, 3, 1 ! Slice}
**.ue[11].macCellId = ${1, 1, 4, 2, 2, 1, 3, 4, 2, 2 ! Slice}
**.ue[11].masterId = ${1, 1, 4, 2, 2, 1, 3, 4, 2, 2 ! Slice}
**.ue[12].macCellId = ${1, 4, 4, 1, 3, 4, 3, 1, 1, 4 ! Slice}
**.ue[12].masterId = ${1, 4, 4, 1, 3, 4, 3, 1, 1, 4 ! Slice}
**.ue[13].macCellId = ${1, 2, 4, 3, 1, 2, 3, 3, 4, 4 ! Slice}
**.ue[13].masterId = ${1, 2, 4, 3, 1, 2, 3, 3, 4, 4 ! Slice}
**.ue[14].macCellId = ${1, 1, 4, 2, 1, 2, 3, 2, 3, 3 ! Slice}
**.ue[14].masterId = ${1, 1, 4, 2, 1, 2, 3, 2, 3, 3 ! Slice}
**.ue[15].macCellId = ${1, 4, 4, 3, 3, 1, 3, 4, 4, 3 ! Slice}
**.ue[15].masterId = ${1, 4, 4, 3, 3, 1, 3, 4, 4, 3 ! Slice}
**.ue[16].macCellId = ${1, 2, 3, 3, 4, 1, 2, 3, 2, 2 ! Slice}
**.ue[16].masterId = ${1, 2, 3, 3, 4, 1, 2, 3, 2, 2 ! Slice}
**.ue[17].macCellId = ${1, 4, 1, 1, 3, 3, 3, 3, 4, 3 ! Slice}
**.ue[17].masterId = ${1, 4, 1, 1, 3, 3, 3, 3, 4, 3 ! Slice}
**.ue[18].macCellId = ${1, 2, 2, 2, 3, 3, 4, 2, 1, 4 ! Slice}
**.ue[18].masterId = ${1, 2, 2, 2, 3, 3, 4, 2, 1, 4 ! Slice}
**.ue[19].macCellId = ${1, 4, 3, 4, 4, 2, 1, 2, 2, 1 ! Slice}
**.ue[19].masterId = ${1, 4, 3, 4, 4, 2, 1, 2, 2, 1 ! Slice}
**.ue[20].macCellId = ${1, 3, 4, 4, 3, 3, 1, 4, 2, 2 ! Slice}
**.ue[20].masterId = ${1, 3, 4, 4, 3, 3, 1, 4, 2, 2 ! Slice}
**.ue[21].macCellId = ${1, 2, 3, 1, 1, 3, 4, 1, 3, 4 ! Slice}
**.ue[21].masterId = ${1, 2, 3, 1, 1, 3, 4, 1, 3, 4 ! Slice}
**.ue[22].macCellId = ${1, 4, 4, 2, 1, 3, 1, 1, 3, 4 ! Slice}
**.ue[22].masterId = ${1, 4, 4, 2, 1, 3, 1, 1, 3, 4 ! Slice}
**.ue[23].macCellId = ${1, 2, 1, 1, 4, 3, 3, 3, 4, 3 ! Slice}
**.ue[23].masterId = ${1, 2, 1, 1, 4, 3, 3, 3, 4, 3 ! Slice}
**.ue[24].macCellId = ${1, 4, 4, 3, 1, 1, 3, 4, 4, 1 ! Slice}
**.ue[24].masterId = ${1, 4, 4, 3, 1, 1, 3, 4, 4, 1 ! Slice}
**.ue[25].macCellId = ${1, 4, 4, 3, 1, 3, 3, 3, 2, 4 ! Slice}
**.ue[25].masterId = ${1, 4, 4, 3, 1, 3, 3, 3, 2, 4 ! Slice}
**.ue[26].macCellId = ${1, 1, 1, 1, 3, 1, 1, 3, 3, 3 ! Slice}
**.ue[26].masterId = ${1, 1, 1, 1, 3, 1, 1, 3, 3, 3 ! Slice}
**.ue[27].macCellId = ${1, 2, 4, 4, 2, 1, 1, 4, 2, 1 ! Slice}
**.ue[27].masterId = ${1, 2, 4, 4, 2, 1, 1, 4, 2, 1 ! Slice}
**.ue[28].macCellId = ${1, 4, 2, 4, 4, 2, 3, 3, 1, 1 ! Slice}
**.ue[28].masterId = ${1, 4, 2, 4, 4, 2, 3, 3, 1, 1 ! Slice}
**.ue[29].macCellId = ${1, 3, 3, 2, 4, 3, 2, 4, 4, 2 ! Slice}
**.ue[29].masterId = ${1, 3, 3, 2, 4, 3, 2, 4, 4, 2 ! Slice}
**.ue[30].macCellId = ${1, 4, 4, 3, 4, 1, 2, 4, 4, 4 ! Slice}
**.ue[30].masterId = ${1, 4, 4, 3, 4, 1, 2, 4, 4, 4 ! Slice}
**.ue[31].macCellId = ${1, 4, 2, 4, 1, 1, 3, 1, 2, 2 ! Slice}
**.ue[31].masterId = ${1, 4, 2, 4, 1, 1, 3, 1, 2, 2 ! Slice}
**.ue[32].macCellId = ${1, 3, 1, 4, 3, 1, 4, 3, 2, 4 ! Slice}
**.ue[32].masterId = ${1, 3, 1, 4, 3, 1, 4, 3, 2, 4 ! Slice}
**.ue[33].macCellId = ${1, 1, 1, 1, 2, 2, 4, 4, 4, 4 ! Slice}
**.ue[33].masterId = ${1, 1, 1, 1, 2, 2, 4, 4, 4, 4 ! Slice}
**.ue[34].macCellId = ${1, 3, 3, 3, 3, 3, 4, 3, 4, 4 ! Slice}
**.ue[34].masterId = ${1, 3, 3, 3, 3, 3, 4, 3, 4, 4 ! Slice}
**.ue[35].macCellId = ${1, 3, 1, 3, 4, 4, 2, 4, 4, 2 ! Slice}
**.ue[35].masterId = ${1, 3, 1, 3, 4, 4, 2, 4, 4, 2 ! Slice}
**.ue[36].macCellId = ${1, 2, 3, 4, 1, 3, 2, 4, 4, 2 ! Slice}
**.ue[36].masterId = ${1, 2, 3, 4, 1, 3, 2, 4, 4, 2 ! Slice}
**.ue[37].macCellId = ${1, 1, 1, 2, 2, 3, 2, 3, 3, 3 ! Slice}
**.ue[37].masterId = ${1, 1, 1, 2, 2, 3, 2, 3, 3, 3 ! Slice}
**.ue[38].macCellId = ${1, 1, 4, 1, 3, 4, 1, 2, 3, 3 ! Slice}
**.ue[38].masterId = ${1, 1, 4, 1, 3, 4, 1, 2, 3, 3 ! Slice}
**.ue[39].macCellId = ${1, 4, 4, 2, 3, 4, 2, 2, 3, 4 ! Slice}
**.ue[39].masterId = ${1, 4, 4, 2, 3, 4, 2, 2, 3, 4 ! Slice}
**.ue[40].macCellId = ${1, 2, 3, 2, 3, 4, 3, 3, 4, 3 ! Slice}
**.ue[40].masterId = ${1, 2, 3, 2, 3, 4, 3, 3, 4, 3 ! Slice}
**.ue[41].macCellId = ${1, 3, 4, 2, 4, 3, 3, 1, 3, 4 ! Slice}
**.ue[41].masterId = ${1, 3, 4, 2, 4, 3, 3, 1, 3, 4 ! Slice}
**.ue[42].macCellId = ${1, 3, 1, 2, 4, 4, 2, 3, 3, 1 ! Slice}
**.ue[42].masterId = ${1, 3, 1, 2, 4, 4, 2, 3, 3, 1 ! Slice}
**.ue[43].macCellId = ${1, 1, 1, 3, 3, 4, 3, 3, 4, 1 ! Slice}
**.ue[43].masterId = ${1, 1, 1, 3, 3, 4, 3, 3, 4, 1 ! Slice}
**.ue[44].macCellId = ${1, 3, 4, 3, 1, 3, 4, 4, 2, 3 ! Slice}
**.ue[44].masterId = ${1, 3, 4, 3, 1, 3, 4, 4, 2, 3 ! Slice}
**.ue[45].macCellId = ${1, 2, 4, 3, 3, 1, 3, 4, 3, 4 ! Slice}
**.ue[45].masterId = ${1, 2, 4, 3, 3, 1, 3, 4, 3, 4 ! Slice}
**.ue[46].macCellId = ${1, 2, 4, 4, 3, 1, 4, 3, 4, 3 ! Slice}
**.ue[46].masterId = ${1, 2, 4, 4, 3, 1, 4, 3, 4, 3 ! Slice}
**.ue[47].macCellId = ${1, 2, 2, 2, 3, 4, 1, 2, 2, 1 ! Slice}
**.ue[47].masterId = ${1, 2, 2, 2, 3, 4, 1, 2, 2, 1 ! Slice}
**.ue[48].macCellId = ${1, 4, 4, 2, 2, 3, 3, 1, 3, 2 ! Slice}
**.ue[48].masterId = ${1, 4, 4, 2, 2, 3, 3, 1, 3, 2 ! Slice}
**.ue[49].macCellId = ${1, 1, 2, 1, 4, 4, 3, 3, 2, 1 ! Slice}
**.ue[49].masterId = ${1, 1, 2, 1, 4, 4, 3, 3, 2, 1 ! Slice}
**.ue[50].macCellId = ${1, 3, 3, 2, 3, 1, 3, 4, 3, 2 ! Slice}
**.ue[50].masterId = ${1, 3, 3, 2, 3, 1, 3, 4, 3, 2 ! Slice}
**.ue[51].macCellId = ${1, 2, 2, 1, 2, 3, 3, 4, 3, 3 ! Slice}
**.ue[51].masterId = ${1, 2, 2, 1, 2, 3, 3, 4, 3, 3 ! Slice}
**.ue[52].macCellId = ${1, 3, 4, 3, 4, 3, 3, 2, 1, 1 ! Slice}
**.ue[52].masterId = ${1, 3, 4, 3, 4, 3, 3, 2, 1, 1 ! Slice}
**.ue[53].macCellId = ${1, 1, 1, 4, 4, 2, 3, 3, 2, 1 ! Slice}
**.ue[53].masterId = ${1, 1, 1, 4, 4, 2, 3, 3, 2, 1 ! Slice}
**.ue[54].macCellId = ${1, 1, 2, 1, 1, 4, 1, 2, 4, 3 ! Slice}
**.ue[54].masterId = ${1, 1, 2, 1, 1, 4, 1, 2, 4, 3 ! Slice}
**.ue[55].macCellId = ${1, 4, 2, 3, 3, 2, 4, 4, 2, 2 ! Slice}
**.ue[55].masterId = ${1, 4, 2, 3, 3, 2, 4, 4, 2, 2 ! Slice}
**.ue[56].macCellId = ${1, 4, 4, 1, 3, 3, 2, 3, 1, 1 ! Slice}
**.ue[56].masterId = ${1, 4, 4, 1, 3, 3, 2, 3, 1, 1 ! Slice}
**.ue[57].macCellId = ${1, 3, 1, 1, 3, 2, 1, 3, 4, 2 ! Slice}
**.ue[57].masterId = ${1, 3, 1, 1, 3, 2, 1, 3, 4, 2 ! Slice}
**.ue[58].macCellId = ${2, 1, 3, 4, 2, 1, 1, 4, 4, 3 ! Slice}
**.ue[58].masterId = ${2, 1, 3, 4, 2, 1, 1, 4, 4, 3 ! Slice}
**.ue[59].macCellId = ${2, 1, 2, 3, 4, 3, 2, 1, 4, 4 ! Slice}
**.ue[59].masterId = ${2, 1, 2, 3, 4, 3, 2, 1, 4, 4 ! Slice}

# Scheduler
**.schedulingDisciplineUl = ${sched= "MAXCI"}
**.schedulingDisciplineDl = ${sched}

############### Scenario ###############

# eNodeBs
**.eNB0.cellularNic.channelModel[*].scenario = "URBAN_MICROCELL"
**.eNB1.cellularNic.channelModel[*].scenario = "URBAN_MICROCELL"
**.eNB2.cellularNic.channelModel[*].scenario = "URBAN_MICROCELL"
**.eNB3.cellularNic.channelModel[*].scenario = "URBAN_MICROCELL"

# UEs
**.ue[0].cellularNic.channelModel[*].scenario = "URBAN_MICROCELL"
**.ue[1].cellularNic.channelModel[*].scenario = "URBAN_MICROCELL"
**.ue[2].cellularNic.channelModel[*].scenario = "URBAN_MICROCELL"
**.ue[3].cellularNic.channelModel[*].scenario = "URBAN_MICROCELL"
**.ue[4].cellularNic.channelModel[*].scenario = "URBAN_MICROCELL"
**.ue[5].cellularNic.channelModel[*].scenario = "URBAN_MICROCELL"
**.ue[6].cellularNic.channelModel[*].scenario = "URBAN_MICROCELL"
**.ue[7].cellularNic.channelModel[*].scenario = "URBAN_MICROCELL"
**.ue[8].cellularNic.channelModel[*].scenario = "URBAN_MICROCELL"
**.ue[9].cellularNic.channelModel[*].scenario = "URBAN_MICROCELL"
**.ue[10].cellularNic.channelModel[*].scenario = "URBAN_MICROCELL"
**.ue[11].cellularNic.channelModel[*].scenario = "URBAN_MICROCELL"
**.ue[12].cellularNic.channelModel[*].scenario = "URBAN_MICROCELL"
**.ue[13].cellularNic.channelModel[*].scenario = "URBAN_MICROCELL"
**.ue[14].cellularNic.channelModel[*].scenario = "URBAN_MICROCELL"
**.ue[15].cellularNic.channelModel[*].scenario = "URBAN_MICROCELL"
**.ue[16].cellularNic.channelModel[*].scenario = "URBAN_MICROCELL"
**.ue[17].cellularNic.channelModel[*].scenario = "URBAN_MICROCELL"
**.ue[18].cellularNic.channelModel[*].scenario = "URBAN_MICROCELL"
**.ue[19].cellularNic.channelModel[*].scenario = "URBAN_MICROCELL"
**.ue[20].cellularNic.channelModel[*].scenario = "URBAN_MICROCELL"
**.ue[21].cellularNic.channelModel[*].scenario = "URBAN_MICROCELL"
**.ue[22].cellularNic.channelModel[*].scenario = "URBAN_MICROCELL"
**.ue[23].cellularNic.channelModel[*].scenario = "URBAN_MICROCELL"
**.ue[24].cellularNic.channelModel[*].scenario = "URBAN_MICROCELL"
**.ue[25].cellularNic.channelModel[*].scenario = "URBAN_MICROCELL"
**.ue[26].cellularNic.channelModel[*].scenario = "URBAN_MICROCELL"
**.ue[27].cellularNic.channelModel[*].scenario = "URBAN_MICROCELL"
**.ue[28].cellularNic.channelModel[*].scenario = "URBAN_MICROCELL"
**.ue[29].cellularNic.channelModel[*].scenario = "URBAN_MICROCELL"
**.ue[30].cellularNic.channelModel[*].scenario = "URBAN_MICROCELL"
**.ue[31].cellularNic.channelModel[*].scenario = "URBAN_MICROCELL"
**.ue[32].cellularNic.channelModel[*].scenario = "URBAN_MICROCELL"
**.ue[33].cellularNic.channelModel[*].scenario = "URBAN_MICROCELL"
**.ue[34].cellularNic.channelModel[*].scenario = "URBAN_MICROCELL"
**.ue[35].cellularNic.channelModel[*].scenario = "URBAN_MICROCELL"
**.ue[36].cellularNic.channelModel[*].scenario = "URBAN_MICROCELL"
**.ue[37].cellularNic.channelModel[*].scenario = "URBAN_MICROCELL"
**.ue[38].cellularNic.channelModel[*].scenario = "URBAN_MICROCELL"
**.ue[39].cellularNic.channelModel[*].scenario = "URBAN_MICROCELL"
**.ue[40].cellularNic.channelModel[*].scenario = "URBAN_MICROCELL"
**.ue[41].cellularNic.channelModel[*].scenario = "URBAN_MICROCELL"
**.ue[42].cellularNic.channelModel[*].scenario = "URBAN_MICROCELL"
**.ue[43].cellularNic.channelModel[*].scenario = "URBAN_MICROCELL"
**.ue[44].cellularNic.channelModel[*].scenario = "URBAN_MICROCELL"
**.ue[45].cellularNic.channelModel[*].scenario = "URBAN_MICROCELL"
**.ue[46].cellularNic.channelModel[*].scenario = "URBAN_MICROCELL"
**.ue[47].cellularNic.channelModel[*].scenario = "URBAN_MICROCELL"
**.ue[48].cellularNic.channelModel[*].scenario = "URBAN_MICROCELL"
**.ue[49].cellularNic.channelModel[*].scenario = "URBAN_MICROCELL"
**.ue[50].cellularNic.channelModel[*].scenario = "URBAN_MICROCELL"
**.ue[51].cellularNic.channelModel[*].scenario = "URBAN_MICROCELL"
**.ue[52].cellularNic.channelModel[*].scenario = "URBAN_MICROCELL"
**.ue[53].cellularNic.channelModel[*].scenario = "URBAN_MICROCELL"
**.ue[54].cellularNic.channelModel[*].scenario = "URBAN_MICROCELL"
**.ue[55].cellularNic.channelModel[*].scenario = "URBAN_MICROCELL"
**.ue[56].cellularNic.channelModel[*].scenario = "URBAN_MICROCELL"
**.ue[57].cellularNic.channelModel[*].scenario = "URBAN_MICROCELL"
**.ue[58].cellularNic.channelModel[*].scenario = "URBAN_MICROCELL"
**.ue[59].cellularNic.channelModel[*].scenario = "URBAN_MICROCELL"

############### Mobility ###############

# eNodeB
*.eNB0.mobility.initialX = 600.0m
*.eNB0.mobility.initialY = 200.0m
*.eNB0.mobility.initialZ = 0m
*.eNB0.mobility.initFromDisplayString = false
*.eNB1.mobility.initialX = 2200.0m
*.eNB1.mobility.initialY = 600.0m
*.eNB1.mobility.initialZ = 0m
*.eNB1.mobility.initFromDisplayString = false
*.eNB2.mobility.initialX = 1400.0m
*.eNB2.mobility.initialY = 2600.0m
*.eNB2.mobility.initialZ = 0m
*.eNB2.mobility.initFromDisplayString = false
*.eNB3.mobility.initialX = 3400.0m
*.eNB3.mobility.initialY = 2600.0m
*.eNB3.mobility.initialZ = 0m
*.eNB3.mobility.initFromDisplayString = false
*.eNB*.mobility.constraintAreaMaxX = 4000 m
*.eNB*.mobility.constraintAreaMaxY = 4000 m
*.eNB*.mobility.constraintAreaMaxZ = inf m
*.eNB*.mobility.constraintAreaMinX = 0 m
*.eNB*.mobility.constraintAreaMinY = 0 m
*.eNB*.mobility.constraintAreaMinZ = -inf m

# UEs

*.ue[*].mobilityType = "LinearMobility"
*.ue[0].mobility.initialX = ${1197.2179219262398m, 1886.39m, 2309.59m, 615.216m, 2004.75m, 2420.81m, 3074.74m, 151.096m, 1035.89m, 2645.91m ! Slice}
*.ue[0].mobility.initialY = ${739.0751098020511m, 1078.71m, 3065.84m, 3556.58m, 2211.39m, 1917.46m, 629.269m, 1367.26m, 1966.63m, 2911.97m ! Slice}
*.ue[0].mobility.initialZ = ${0m, 0.0m, 0.0m, 0.0m, 0.0m, 0.0m, 0.0m, 0.0m, 0.0m, 0.0m ! Slice}
*.ue[0].mobility.initFromDisplayString = false
*.ue[1].mobility.initialX = ${1128.5408193566075m, 2315.55m, 3486.32m, 3447.53m, 3201.91m, 2051.22m, 1068.24m, 1185.0m, 2275.92m, 2728.29m ! Slice}
*.ue[1].mobility.initialY = ${684.137472822221m, 3159.7m, 2285.56m, 341.214m, 365.038m, 2736.97m, 3012.52m, 1683.28m, 3761.44m, 3295.12m ! Slice}
*.ue[1].mobility.initialZ = ${0m, 0.0m, 0.0m, 0.0m, 0.0m, 0.0m, 0.0m, 0.0m, 0.0m, 0.0m ! Slice}
*.ue[1].mobility.initFromDisplayString = false
*.ue[2].mobility.initialX = ${957.202503296345m, 1102.23m, 2557.83m, 3104.15m, 1497.77m, 127.552m, 1751.36m, 3966.45m, 1753.39m, 951.965m ! Slice}
*.ue[2].mobility.initialY = ${689.234207852043m, 535.515m, 1110.99m, 3213.61m, 2699.91m, 1359.61m, 875.855m, 2979.72m, 2447.03m, 59.2921m ! Slice}
*.ue[2].mobility.initialZ = ${0m, 0.0m, 0.0m, 0.0m, 0.0m, 0.0m, 0.0m, 0.0m, 0.0m, 0.0m ! Slice}
*.ue[2].mobility.initFromDisplayString = false
*.ue[3].mobility.initialX = ${1545.4678832186562m, 3722.16m, 1807.19m, 3738.7m, 2716.4m, 2662.8m, 2090.12m, 161.762m, 1678.49m, 3905.82m ! Slice}
*.ue[3].mobility.initialY = ${530.0729059279295m, 630.939m, 745.093m, 987.89m, 1073.82m, 1299.4m, 1461.44m, 1563.1m, 1648.37m, 1751.59m ! Slice}
*.ue[3].mobility.initialZ = ${0m, 0.0m, 0.0m, 0.0m, 0.0m, 0.0m, 0.0m, 0.0m, 0.0m, 0.0m ! Slice}
*.ue[3].mobility.initFromDisplayString = false
*.ue[4].mobility.initialX = ${1542.6285276786846m, 3936.3m, 1194.95m, 522.959m, 3122.18m, 3324.47m, 107.102m, 1061.4m, 3118.74m, 2955.55m ! Slice}
*.ue[4].mobility.initialY = ${623.9138007887532m, 1854.34m, 3192.27m, 3940.76m, 2700.73m, 1999.62m, 372.356m, 237.626m, 1202.04m, 2077.2m ! Slice}
*.ue[4].mobility.initialZ = ${0m, 0.0m, 0.0m, 0.0m, 0.0m, 0.0m, 0.0m, 0.0m, 0.0m, 0.0m ! Slice}
*.ue[4].mobility.initFromDisplayString = false
*.ue[5].mobility.initialX = ${1305.1677186969857m, 2872.37m, 3518.61m, 2100.47m, 1229.68m, 3623.28m, 2827.87m, 1318.47m, 1141.85m, 3756.79m ! Slice}
*.ue[5].mobility.initialY = ${736.3739115713836m, 2544.06m, 3568.96m, 1964.26m, 1785.19m, 2919.46m, 1599.24m, 165.311m, 2734.65m, 1780.7m ! Slice}
*.ue[5].mobility.initialZ = ${0m, 0.0m, 0.0m, 0.0m, 0.0m, 0.0m, 0.0m, 0.0m, 0.0m, 0.0m ! Slice}
*.ue[5].mobility.initFromDisplayString = false
*.ue[6].mobility.initialX = ${1335.9838815841886m, 2125.13m, 2996.7m, 323.2m, 3827.14m, 834.547m, 1460.07m, 2682.44m, 1486.67m, 1126.16m ! Slice}
*.ue[6].mobility.initialY = ${620.6738474650806m, 1367.83m, 2020.02m, 2880.27m, 3699.95m, 3475.35m, 3005.82m, 2193.79m, 1800.2m, 1251.67m ! Slice}
*.ue[6].mobility.initialZ = ${0m, 0.0m, 0.0m, 0.0m, 0.0m, 0.0m, 0.0m, 0.0m, 0.0m, 0.0m ! Slice}
*.ue[6].mobility.initFromDisplayString = false
*.ue[7].mobility.initialX = ${1208.1885494316039m, 729.481m, 258.967m, 1229.97m, 1583.88m, 2434.44m, 3301.79m, 3833.26m, 3341.03m, 2648.01m ! Slice}
*.ue[7].mobility.initialY = ${779.4162020470268m, 2544.19m, 2058.54m, 2164.35m, 3072.49m, 1626.11m, 1696.54m, 3364.96m, 1586.97m, 1237.65m ! Slice}
*.ue[7].mobility.initialZ = ${0m, 0.0m, 0.0m, 0.0m, 0.0m, 0.0m, 0.0m, 0.0m, 0.0m, 0.0m ! Slice}
*.ue[7].mobility.initFromDisplayString = false
*.ue[8].mobility.initialX = ${1519.735681565534m, 2378.03m, 3229.18m, 3673.51m, 2132.25m, 1178.35m, 327.123m, 380.923m, 919.892m, 1572.82m ! Slice}
*.ue[8].mobility.initialY = ${777.1235060312316m, 2336.56m, 2587.23m, 942.496m, 1142.75m, 1733.84m, 3128.31m, 1295.88m, 943.845m, 2979.11m ! Slice}
*.ue[8].mobility.initialZ = ${0m, 0.0m, 0.0m, 0.0m, 0.0m, 0.0m, 0.0m, 0.0m, 0.0m, 0.0m ! Slice}
*.ue[8].mobility.initFromDisplayString = false
*.ue[9].mobility.initialX = ${1431.672005258527m, 969.432m, 2171.15m, 2253.83m, 3660.49m, 3071.48m, 1297.69m, 2680.4m, 1040.93m, 2131.04m ! Slice}
*.ue[9].mobility.initialY = ${727.4311283062208m, 366.744m, 471.102m, 1186.79m, 1505.52m, 1715.56m, 2365.03m, 2702.81m, 3393.5m, 3944.93m ! Slice}
*.ue[9].mobility.initialZ = ${0m, 0.0m, 0.0m, 0.0m, 0.0m, 0.0m, 0.0m, 0.0m, 0.0m, 0.0m ! Slice}
*.ue[9].mobility.initFromDisplayString = false
*.ue[10].mobility.initialX = ${1711.8402813684177m, 664.012m, 26.9536m, 950.305m, 1889.41m, 2740.97m, 3703.33m, 3335.67m, 2336.14m, 1352.28m ! Slice}
*.ue[10].mobility.initialY = ${708.0796096306092m, 2573.17m, 3415.69m, 731.43m, 2167.49m, 3038.22m, 482.485m, 2315.71m, 2318.47m, 798.381m ! Slice}
*.ue[10].mobility.initialZ = ${0m, 0.0m, 0.0m, 0.0m, 0.0m, 0.0m, 0.0m, 0.0m, 0.0m, 0.0m ! Slice}
*.ue[10].mobility.initFromDisplayString = false
*.ue[11].mobility.initialX = ${1722.0489167100213m, 2723.57m, 3533.53m, 3216.6m, 2202.58m, 41.4408m, 1603.39m, 2362.47m, 3450.23m, 3130.33m ! Slice}
*.ue[11].mobility.initialY = ${793.5799068685718m, 3023.99m, 3026.56m, 561.894m, 1927.77m, 939.435m, 2507.45m, 3963.92m, 1541.44m, 1683.11m ! Slice}
*.ue[11].mobility.initialZ = ${0m, 0.0m, 0.0m, 0.0m, 0.0m, 0.0m, 0.0m, 0.0m, 0.0m, 0.0m ! Slice}
*.ue[11].mobility.initFromDisplayString = false
*.ue[12].mobility.initialX = ${1642.2388365415713m, 3927.61m, 2338.11m, 784.74m, 2240.49m, 3908.45m, 2245.86m, 409.078m, 1440.99m, 3939.73m ! Slice}
*.ue[12].mobility.initialY = ${708.6353049573012m, 3264.79m, 2705.21m, 1058.02m, 2361.72m, 3309.1m, 1744.36m, 622.216m, 2329.39m, 2397.18m ! Slice}
*.ue[12].mobility.initialZ = ${0m, 0.0m, 0.0m, 0.0m, 0.0m, 0.0m, 0.0m, 0.0m, 0.0m, 0.0m ! Slice}
*.ue[12].mobility.initFromDisplayString = false
*.ue[13].mobility.initialX = ${978.3119925824444m, 949.538m, 2544.17m, 1820.62m, 877.025m, 2965.04m, 1945.08m, 1370.28m, 2377.42m, 2905.29m ! Slice}
*.ue[13].mobility.initialY = ${1016.8432255300005m, 2031.94m, 3081.09m, 2775.45m, 1409.38m, 15.8841m, 1733.73m, 3557.95m, 3588.55m, 2224.35m ! Slice}
*.ue[13].mobility.initialZ = ${0m, 0.0m, 0.0m, 0.0m, 0.0m, 0.0m, 0.0m, 0.0m, 0.0m, 0.0m ! Slice}
*.ue[13].mobility.initFromDisplayString = false
*.ue[14].mobility.initialX = ${1076.772548566485m, 1858.99m, 3970.18m, 2230.16m, 942.463m, 1058.8m, 2932.04m, 2447.04m, 484.996m, 1622.23m ! Slice}
*.ue[14].mobility.initialY = ${980.4567026536702m, 1860.07m, 3290.34m, 1742.09m, 294.049m, 1803.26m, 3937.09m, 1183.85m, 1397.26m, 3524.21m ! Slice}
*.ue[14].mobility.initialZ = ${0m, 0.0m, 0.0m, 0.0m, 0.0m, 0.0m, 0.0m, 0.0m, 0.0m, 0.0m ! Slice}
*.ue[14].mobility.initFromDisplayString = false
*.ue[15].mobility.initialX = ${986.401568737623m, 2866.58m, 2543.14m, 143.828m, 2921.26m, 2522.06m, 800.143m, 3274.05m, 2354.84m, 1027.15m ! Slice}
*.ue[15].mobility.initialY = ${978.9432522788474m, 1259.31m, 1618.0m, 2046.25m, 2460.42m, 2817.73m, 3264.09m, 3705.98m, 3903.29m, 3502.33m ! Slice}
*.ue[15].mobility.initialZ = ${0m, 0.0m, 0.0m, 0.0m, 0.0m, 0.0m, 0.0m, 0.0m, 0.0m, 0.0m ! Slice}
*.ue[15].mobility.initFromDisplayString = false
*.ue[16].mobility.initialX = ${1077.4819950678886m, 3190.19m, 1898.15m, 1592.5m, 3010.83m, 654.248m, 2487.05m, 2954.4m, 2395.93m, 806.933m ! Slice}
*.ue[16].mobility.initialY = ${957.9755027345228m, 311.832m, 1547.49m, 3211.2m, 3002.16m, 1676.23m, 111.324m, 1102.2m, 1517.68m, 2328.62m ! Slice}
*.ue[16].mobility.initialZ = ${0m, 0.0m, 0.0m, 0.0m, 0.0m, 0.0m, 0.0m, 0.0m, 0.0m, 0.0m ! Slice}
*.ue[16].mobility.initFromDisplayString = false
*.ue[17].mobility.initialX = ${1043.5844043174038m, 3040.1m, 1065.5m, 1236.29m, 2727.43m, 1779.16m, 919.882m, 2085.28m, 2415.28m, 783.823m ! Slice}
*.ue[17].mobility.initialY = ${1011.6310366179521m, 530.227m, 468.552m, 924.194m, 1323.35m, 2112.06m, 2736.63m, 3097.49m, 3855.63m, 3652.57m ! Slice}
*.ue[17].mobility.initialZ = ${0m, 0.0m, 0.0m, 0.0m, 0.0m, 0.0m, 0.0m, 0.0m, 0.0m, 0.0m ! Slice}
*.ue[17].mobility.initFromDisplayString = false
*.ue[18].mobility.initialX = ${1057.2821519175734m, 2009.42m, 2568.67m, 1704.62m, 415.006m, 1796.44m, 3908.89m, 1939.27m, 750.049m, 3612.88m ! Slice}
*.ue[18].mobility.initialY = ${1053.4085385581166m, 496.898m, 1369.85m, 2008.19m, 2761.96m, 3978.56m, 2604.28m, 1453.06m, 85.3685m, 1792.1m ! Slice}
*.ue[18].mobility.initialZ = ${0m, 0.0m, 0.0m, 0.0m, 0.0m, 0.0m, 0.0m, 0.0m, 0.0m, 0.0m ! Slice}
*.ue[18].mobility.initFromDisplayString = false
*.ue[19].mobility.initialX = ${1064.7375982315818m, 3785.41m, 71.3322m, 2437.05m, 2969.82m, 1311.0m, 1269.75m, 3341.83m, 3184.17m, 934.811m ! Slice}
*.ue[19].mobility.initialY = ${952.8976451249868m, 2229.31m, 3792.18m, 3239.18m, 2307.22m, 1526.14m, 571.346m, 454.069m, 921.802m, 1868.14m ! Slice}
*.ue[19].mobility.initialZ = ${0m, 0.0m, 0.0m, 0.0m, 0.0m, 0.0m, 0.0m, 0.0m, 0.0m, 0.0m ! Slice}
*.ue[19].mobility.initFromDisplayString = false
*.ue[20].mobility.initialX = ${907.2943335640168m, 1838.6m, 3520.43m, 2762.54m, 1615.47m, 400.36m, 1588.63m, 3085.17m, 3493.11m, 2147.33m ! Slice}
*.ue[20].mobility.initialY = ${823.1817020897506m, 2645.17m, 1834.09m, 1519.85m, 3538.67m, 2037.21m, 2067.24m, 2883.51m, 782.946m, 2257.08m ! Slice}
*.ue[20].mobility.initialZ = ${0m, 0.0m, 0.0m, 0.0m, 0.0m, 0.0m, 0.0m, 0.0m, 0.0m, 0.0m ! Slice}
*.ue[20].mobility.initFromDisplayString = false
*.ue[21].mobility.initialX = ${993.6820833177418m, 3108.65m, 2915.57m, 1343.85m, 113.062m, 1621.57m, 3334.78m, 1863.7m, 1042.44m, 2189.52m ! Slice}
*.ue[21].mobility.initialY = ${1003.6429509099819m, 1845.11m, 3953.78m, 1914.0m, 373.008m, 1843.88m, 3943.83m, 672.463m, 2733.07m, 3273.99m ! Slice}
*.ue[21].mobility.initialZ = ${0m, 0.0m, 0.0m, 0.0m, 0.0m, 0.0m, 0.0m, 0.0m, 0.0m, 0.0m ! Slice}
*.ue[21].mobility.initFromDisplayString = false
*.ue[22].mobility.initialX = ${1015.8071278361629m, 2253.8m, 3592.9m, 2389.74m, 1090.23m, 80.1822m, 1538.65m, 2190.62m, 3838.04m, 2429.22m ! Slice}
*.ue[22].mobility.initialY = ${970.5307649243849m, 2867.07m, 2897.04m, 74.8075m, 1999.8m, 3547.15m, 1912.34m, 974.085m, 1728.06m, 3795.84m ! Slice}
*.ue[22].mobility.initialZ = ${0m, 0.0m, 0.0m, 0.0m, 0.0m, 0.0m, 0.0m, 0.0m, 0.0m, 0.0m ! Slice}
*.ue[22].mobility.initFromDisplayString = false
*.ue[23].mobility.initialX = ${1006.3081340005083m, 2764.92m, 2477.85m, 1110.0m, 3909.62m, 1454.49m, 1352.57m, 2847.72m, 2124.5m, 123.948m ! Slice}
*.ue[23].mobility.initialY = ${978.7126845264089m, 145.611m, 506.88m, 1268.93m, 2077.59m, 2650.53m, 3248.64m, 3654.51m, 3623.6m, 3172.06m ! Slice}
*.ue[23].mobility.initialZ = ${0m, 0.0m, 0.0m, 0.0m, 0.0m, 0.0m, 0.0m, 0.0m, 0.0m, 0.0m ! Slice}
*.ue[23].mobility.initFromDisplayString = false
*.ue[24].mobility.initialX = ${1061.8209075310542m, 2538.94m, 2867.26m, 1579.21m, 358.896m, 1773.04m, 2671.66m, 3887.06m, 2219.59m, 1160.04m ! Slice}
*.ue[24].mobility.initialY = ${943.6168711190314m, 878.899m, 3272.18m, 2924.04m, 1666.51m, 945.458m, 1685.48m, 3279.62m, 2765.41m, 946.246m ! Slice}
*.ue[24].mobility.initialZ = ${0m, 0.0m, 0.0m, 0.0m, 0.0m, 0.0m, 0.0m, 0.0m, 0.0m, 0.0m ! Slice}
*.ue[24].mobility.initFromDisplayString = false
*.ue[25].mobility.initialX = ${1035.5086191294852m, 2794.99m, 3185.92m, 1174.12m, 1171.81m, 3677.18m, 2228.6m, 287.099m, 2122.03m, 3364.82m ! Slice}
*.ue[25].mobility.initialY = ${984.2712480083943m, 935.827m, 2518.73m, 3052.19m, 1201.26m, 1636.48m, 3480.07m, 2544.55m, 267.799m, 1893.82m ! Slice}
*.ue[25].mobility.initialZ = ${0m, 0.0m, 0.0m, 0.0m, 0.0m, 0.0m, 0.0m, 0.0m, 0.0m, 0.0m ! Slice}
*.ue[25].mobility.initFromDisplayString = false
*.ue[26].mobility.initialX = ${1185.1599748999968m, 976.049m, 714.746m, 452.088m, 213.695m, 121.43m, 233.087m, 422.932m, 672.152m, 958.937m ! Slice}
*.ue[26].mobility.initialY = ${1069.4727320703607m, 1805.1m, 2661.41m, 257.961m, 3291.21m, 846.786m, 1084.33m, 3391.5m, 1365.71m, 2434.08m ! Slice}