#Function: ilp_sliced_ini
#Parameters:
#   filename: ../Network_CCOpMv/_5G/simulations/disaster_percentage_0/micro_power_30/chosen_seed_6/ilp_single_sliced_15.ini
#   seed: 6
#   size_y: 4000
#   size_x: 4000
#   size_sector: 400
#   n_macros: 1
#   min_sinr: 15
#   repetitions: 1
#   multi_carriers: False
#   slice_time: 1
#   is_micro: True
#   p_size: 1428
#   app: video
#   target_f: 10
#   extra_config_name: video
#   result_dir: Solutions/disaster_percentage_0/micro_power_30/chosen_seed_6
#   mode: single
#   network_name: ILPSingleNet15
#   net_dir: _5G/networks/disaster_percentage_0/micro_power_30/chosen_seed_6
#   cmdenv_config: True
#   micro_power: 30
#   xml_filename: ilp_move_users-6.sna
#   num_bands: [100]
#Extra = Using 1 macros with 60 ues each. Slicing 10s in 10 different simulations. Using microcells.
[General]
sim-time-limit = 10s

############### Statistics ###############
output-scalar-file = ${resultdir}/${configname}/${repetition}.sca
output-vector-file = ${resultdir}/${configname}/${repetition}.vec
**.vector-recording = false
eventlog-file = ${resultdir}/${configname}/${repetition}.elog
seed-set = ${repetition}

[Config ilp_single_sliced_15_video]
network = _5G.networks.disaster_percentage_0.micro_power_30.chosen_seed_6.ILPSingleNet15
sim-time-limit = 1s
repeat = 1
seed-set = ${repetition}
num-rngs = 2
seed-1-mt = 6

############### Outputs ###############
**.eNB*.cellularNic.channelModel[*].idRcvdSinr:vector.vector-recording = true
**.eNB*.cellularNic.channelModel[*].rcvdSinr:vector.vector-recording = true
**.app[*].throughput:vector.vector-recording = true
**.app[*].endToEndDelay:vector.vector-recording = true
output-scalar-file = ${resultdir}/ilp_single_sliced_15_video/15-${RBs}-${repetition}-${Slice}.sca
output-vector-file = ${resultdir}/ilp_single_sliced_15_video/15-${RBs}-${repetition}-${Slice}.vec
**.vector-recording = false
eventlog-file = ${resultdir}/ilp_single_sliced_15_video/15-${RBs}-${repetition}-${Slice}.elog

############### Cmdenv ###############
cmdenv-performance-display = false
cmdenv-redirect-output = true
cmdenv-output-file = ${resultdir}/ilp_single_sliced_15_video-cmdout/15-${RBs}-${repetition}-${Slice}.out

############### Snapshots ###############
snapshot-file = ../../../Functions/ilp_single_sliced_15_video-RBs_${RBs}-Slice_${Slice}-15-${repetition}.sna
**.snapshotter.snapshot = false
**.snapshotter.delay = 1.0

############### Transmission Power ###############
**.ueTxPower = 24
**.eNodeBTxPower = 46
**.microTxPower = 30
**.cellularNic.phy.txDirection = "OMNI"

############### Channel Control ###############
**.numComponentCarriers = 1
*.carrierAggregation.componentCarrier[0].carrierFrequency = 0.7GHz

############### Channel Model ###############
**.cellularNic.LteChannelModelType = "MoreInfoChannelModel"
**.cellularNic.channelModel[*].building_height = 20
**.cellularNic.channelModel[*].nodeb_height = 18
**.cellularNic.channelModel[*].ue_height = 1.5
**.cellularNic.channelModel[*].street_wide = 20
**.cellularNic.channelModel[*].fading_type = "JAKES"
**.cellularNic.channelModel[*].extCell_interference = false
**.cellularNic.channelModel[*].antennGainEnB = 18
**.cellularNic.channelModel[*].antennGainMicro = 5
**.cellularNic.channelModel[*].antennaGainUe = -1
**.cellularNic.channelModel[*].bs_noise_figure = 9
**.cellularNic.channelModel[*].cable_loss = 2
**.cellularNic.channelModel[*].componentCarrierIndex = 0
**.cellularNic.channelModel[*].correlation_distance = 50
**.cellularNic.channelModel[*].d2d_interference = true
**.cellularNic.channelModel[*].delay_rms = 363e-9
**.cellularNic.channelModel[*].downlink_interference = false
**.cellularNic.channelModel[*].dynamic_los = false
**.cellularNic.channelModel[*].enable_extCell_los = true
**.cellularNic.channelModel[*].fading = true
**.cellularNic.channelModel[*].fading_paths = 6
**.cellularNic.channelModel[*].fixed_los = false
**.cellularNic.channelModel[*].harqReduction = 0.2
**.cellularNic.channelModel[*].inside_building = false
**.cellularNic.channelModel[*].lambdaMaxTh = 0.2
**.cellularNic.channelModel[*].lambdaMinTh = 0.02
**.cellularNic.channelModel[*].lambdaRatioTh = 20
**.cellularNic.channelModel[*].rsrqScale = 1.0
**.cellularNic.channelModel[*].rsrqShift = 22
**.cellularNic.channelModel[*].shadowing = true
**.cellularNic.channelModel[*].targetBler = 0.01
**.cellularNic.channelModel[*].thermalNoise = -104.5
**.cellularNic.channelModel[*].tolerateMaxDistViolation = true
**.cellularNic.channelModel[*].ue_noise_figure = 7
**.cellularNic.channelModel[*].uplink_interference = false
**.cellularNic.channelModel[*].useRsrqFromLog = false
**.cellularNic.channelModel[*].useTorus = false
**.cellularNic.channelModel[*].num_slice = ${Slice= 0, 1, 2, 3, 4, 5, 6, 7, 8, 9}
**.cellularNic.channelModel[*].num_enbs = ${NumEnbs= 1, 6, 6, 6, 6, 6, 6, 6, 6, 6 ! Slice}

############### Resource Blocks ###############
**.numBands = ${RBs= 100}

############### eNBs ###############
**.eNB0.cellInfo.microCell = true
**.eNB1.cellInfo.microCell = true
**.eNB2.cellInfo.microCell = true
**.eNB3.cellInfo.microCell = true
**.eNB4.cellInfo.microCell = true
**.eNB5.cellInfo.microCell = true

############### UEs ###############
**.numUe = 60

# Conecting UEs to eNodeB
**.ue[0].macCellId = ${5, 2, 2, 6, 3, 1, 6, 5, 2, 2 ! Slice}
**.ue[0].masterId = ${5, 2, 2, 6, 3, 1, 6, 5, 2, 2 ! Slice}
**.ue[1].macCellId = ${5, 6, 3, 1, 5, 3, 1, 5, 5, 1 ! Slice}
**.ue[1].masterId = ${5, 6, 3, 1, 5, 3, 1, 5, 5, 1 ! Slice}
**.ue[2].macCellId = ${5, 2, 5, 4, 1, 4, 5, 1, 6, 1 ! Slice}
**.ue[2].masterId = ${5, 2, 5, 4, 1, 4, 5, 1, 6, 1 ! Slice}
**.ue[3].macCellId = ${5, 3, 1, 2, 5, 4, 2, 1, 6, 5 ! Slice}
**.ue[3].masterId = ${5, 3, 1, 2, 5, 4, 2, 1, 6, 5 ! Slice}
**.ue[4].macCellId = ${5, 4, 3, 1, 1, 1, 1, 2, 1, 1 ! Slice}
**.ue[4].masterId = ${5, 4, 3, 1, 1, 1, 1, 2, 1, 1 ! Slice}
**.ue[5].macCellId = ${5, 6, 6, 5, 3, 2, 1, 2, 1, 1 ! Slice}
**.ue[5].masterId = ${5, 6, 6, 5, 3, 2, 1, 2, 1, 1 ! Slice}
**.ue[6].macCellId = ${5, 1, 1, 4, 6, 6, 2, 1, 6, 5 ! Slice}
**.ue[6].masterId = ${5, 1, 1, 4, 6, 6, 2, 1, 6, 5 ! Slice}
**.ue[7].macCellId = ${5, 6, 1, 2, 6, 6, 2, 2, 3, 4 ! Slice}
**.ue[7].masterId = ${5, 6, 1, 2, 6, 6, 2, 2, 3, 4 ! Slice}
**.ue[8].macCellId = ${5, 1, 1, 6, 3, 3, 6, 6, 1, 4 ! Slice}
**.ue[8].masterId = ${5, 1, 1, 6, 3, 3, 6, 6, 1, 4 ! Slice}
**.ue[9].macCellId = ${5, 6, 5, 6, 6, 5, 5, 5, 4, 3 ! Slice}
**.ue[9].masterId = ${5, 6, 5, 6, 6, 5, 5, 5, 4, 3 ! Slice}
**.ue[10].macCellId = ${5, 2, 4, 4, 1, 6, 6, 1, 1, 5 ! Slice}
**.ue[10].masterId = ${5, 2, 4, 4, 1, 6, 6, 1, 1, 5 ! Slice}
**.ue[11].macCellId = ${5, 6, 6, 4, 1, 1, 2, 2, 1, 1 ! Slice}
**.ue[11].masterId = ${5, 6, 6, 4, 1, 1, 2, 2, 1, 1 ! Slice}
**.ue[12].macCellId = ${5, 5, 1, 3, 6, 2, 5, 3, 1, 5 ! Slice}
**.ue[12].masterId = ${5, 5, 1, 3, 6, 2, 5, 3, 1, 5 ! Slice}
**.ue[13].macCellId = ${5, 1, 6, 3, 1, 5, 2, 1, 3, 1 ! Slice}
**.ue[13].masterId = ${5, 1, 6, 3, 1, 5, 2, 1, 3, 1 ! Slice}
**.ue[14].macCellId = ${5, 3, 4, 6, 1, 2, 6, 3, 1, 4 ! Slice}
**.ue[14].masterId = ${5, 3, 4, 6, 1, 2, 6, 3, 1, 4 ! Slice}
**.ue[15].macCellId = ${5, 1, 1, 6, 3, 6, 1, 6, 4, 1 ! Slice}
**.ue[15].masterId = ${5, 1, 1, 6, 3, 6, 1, 6, 4, 1 ! Slice}
**.ue[16].macCellId = ${5, 5, 5, 1, 1, 5, 4, 1, 1, 5 ! Slice}
**.ue[16].masterId = ${5, 5, 5, 1, 1, 5, 4, 1, 1, 5 ! Slice}
**.ue[17].macCellId = ${5, 5, 6, 5, 6, 4, 2, 1, 1, 1 ! Slice}
**.ue[17].masterId = ${5, 5, 6, 5, 6, 4, 2, 1, 1, 1 ! Slice}
**.ue[18].macCellId = ${5, 1, 3, 3, 5, 1, 1, 1, 5, 6 ! Slice}
**.ue[18].masterId = ${5, 1, 3, 3, 5, 1, 1, 1, 5, 6 ! Slice}
**.ue[19].macCellId = ${5, 4, 4, 6, 1, 3, 6, 2, 5, 4 ! Slice}
**.ue[19].masterId = ${5, 4, 4, 6, 1, 3, 6, 2, 5, 4 ! Slice}
**.ue[20].macCellId = ${5, 4, 3, 2, 2, 1, 1, 2, 6, 6 ! Slice}
**.ue[20].masterId = ${5, 4, 3, 2, 2, 1, 1, 2, 6, 6 ! Slice}
**.ue[21].macCellId = ${5, 1, 3, 6, 5, 4, 3, 6, 4, 2 ! Slice}
**.ue[21].masterId = ${5, 1, 3, 6, 5, 4, 3, 6, 4, 2 ! Slice}
**.ue[22].macCellId = ${5, 5, 3, 2, 2, 1, 1, 5, 6, 6 ! Slice}
**.ue[22].masterId = ${5, 5, 3, 2, 2, 1, 1, 5, 6, 6 ! Slice}
**.ue[23].macCellId = ${5, 1, 1, 1, 5, 1, 1, 5, 1, 1 ! Slice}
**.ue[23].masterId = ${5, 1, 1, 1, 5, 1, 1, 5, 1, 1 ! Slice}
**.ue[24].macCellId = ${5, 5, 4, 1, 3, 5, 2, 2, 6, 1 ! Slice}
**.ue[24].masterId = ${5, 5, 4, 1, 3, 5, 2, 2, 6, 1 ! Slice}
**.ue[25].macCellId = ${5, 6, 5, 5, 4, 1, 3, 2, 2, 3 ! Slice}
**.ue[25].masterId = ${5, 6, 5, 5, 4, 1, 3, 2, 2, 3 ! Slice}
**.ue[26].macCellId = ${5, 2, 5, 2, 2, 4, 6, 3, 3, 6 ! Slice}
**.ue[26].masterId = ${5, 2, 5, 2, 2, 4, 6, 3, 3, 6 ! Slice}
**.ue[27].macCellId = ${5, 2, 2, 2, 2, 2, 5, 5, 1, 6 ! Slice}
**.ue[27].masterId = ${5, 2, 2, 2, 2, 2, 5, 5, 1, 6 ! Slice}
**.ue[28].macCellId = ${5, 4, 1, 1, 3, 1, 6, 4, 4, 5 ! Slice}
**.ue[28].masterId = ${5, 4, 1, 1, 3, 1, 6, 4, 4, 5 ! Slice}
**.ue[29].macCellId = ${5, 4, 3, 1, 2, 1, 4, 6, 5, 4 ! Slice}
**.ue[29].masterId = ${5, 4, 3, 1, 2, 1, 4, 6, 5, 4 ! Slice}
**.ue[30].macCellId = ${5, 4, 2, 5, 2, 5, 2, 2, 5, 1 ! Slice}
**.ue[30].masterId = ${5, 4, 2, 5, 2, 5, 2, 2, 5, 1 ! Slice}
**.ue[31].macCellId = ${5, 5, 2, 4, 5, 1, 3, 6, 1, 5 ! Slice}
**.ue[31].masterId = ${5, 5, 2, 4, 5, 1, 3, 6, 1, 5 ! Slice}
**.ue[32].macCellId = ${5, 2, 3, 6, 6, 5, 2, 1, 6, 2 ! Slice}
**.ue[32].masterId = ${5, 2, 3, 6, 6, 5, 2, 1, 6, 2 ! Slice}
**.ue[33].macCellId = ${5, 5, 1, 1, 5, 1, 1, 5, 5, 1 ! Slice}
**.ue[33].masterId = ${5, 5, 1, 1, 5, 1, 1, 5, 5, 1 ! Slice}
**.ue[34].macCellId = ${5, 2, 4, 6, 1, 3, 3, 3, 3, 6 ! Slice}
**.ue[34].masterId = ${5, 2, 4, 6, 1, 3, 3, 3, 3, 6 ! Slice}
**.ue[35].macCellId = ${5, 6, 5, 4, 1, 2, 6, 6, 5, 3 ! Slice}
**.ue[35].masterId = ${5, 6, 5, 4, 1, 2, 6, 6, 5, 3 ! Slice}
**.ue[36].macCellId = ${5, 2, 2, 5, 1, 6, 6, 1, 3, 1 ! Slice}
**.ue[36].masterId = ${5, 2, 2, 5, 1, 6, 6, 1, 3, 1 ! Slice}
**.ue[37].macCellId = ${5, 2, 4, 5, 5, 1, 6, 3, 1, 4 ! Slice}
**.ue[37].masterId = ${5, 2, 4, 5, 5, 1, 6, 3, 1, 4 ! Slice}
**.ue[38].macCellId = ${5, 2, 2, 6, 3, 4, 5, 1, 1, 6 ! Slice}
**.ue[38].masterId = ${5, 2, 2, 6, 3, 4, 5, 1, 1, 6 ! Slice}
**.ue[39].macCellId = ${5, 4, 4, 6, 1, 3, 3, 1, 6, 6 ! Slice}
**.ue[39].masterId = ${5, 4, 4, 6, 1, 3, 3, 1, 6, 6 ! Slice}
**.ue[40].macCellId = ${5, 6, 1, 2, 6, 4, 1, 1, 5, 5 ! Slice}
**.ue[40].masterId = ${5, 6, 1, 2, 6, 4, 1, 1, 5, 5 ! Slice}
**.ue[41].macCellId = ${5, 6, 6, 5, 5, 3, 4, 1, 2, 1 ! Slice}
**.ue[41].masterId = ${5, 6, 6, 5, 5, 3, 4, 1, 2, 1 ! Slice}
**.ue[42].macCellId = ${5, 5, 1, 3, 5, 4, 1, 3, 5, 2 ! Slice}
**.ue[42].masterId = ${5, 5, 1, 3, 5, 4, 1, 3, 5, 2 ! Slice}
**.ue[43].macCellId = ${5, 5, 1, 1, 4, 6, 6, 2, 1, 5 ! Slice}
**.ue[43].masterId = ${5, 5, 1, 1, 4, 6, 6, 2, 1, 5 ! Slice}
**.ue[44].macCellId = ${5, 6, 5, 6, 5, 5, 6, 5, 6, 5 ! Slice}
**.ue[44].masterId = ${5, 6, 5, 6, 5, 5, 6, 5, 6, 5 ! Slice}
**.ue[45].macCellId = ${5, 5, 6, 4, 3, 1, 1, 1, 2, 1 ! Slice}
**.ue[45].masterId = ${5, 5, 6, 4, 3, 1, 1, 1, 2, 1 ! Slice}
**.ue[46].macCellId = ${5, 3, 1, 5, 5, 2, 3, 6, 2, 4 ! Slice}
**.ue[46].masterId = ${5, 3, 1, 5, 5, 2, 3, 6, 2, 4 ! Slice}
**.ue[47].macCellId = ${5, 4, 1, 5, 6, 6, 2, 3, 5, 3 ! Slice}
**.ue[47].masterId = ${5, 4, 1, 5, 6, 6, 2, 3, 5, 3 ! Slice}
**.ue[48].macCellId = ${5, 1, 4, 5, 1, 1, 5, 1, 1, 5 ! Slice}
**.ue[48].masterId = ${5, 1, 4, 5, 1, 1, 5, 1, 1, 5 ! Slice}
**.ue[49].macCellId = ${5, 3, 2, 1, 3, 6, 5, 6, 1, 2 ! Slice}
**.ue[49].masterId = ${5, 3, 2, 1, 3, 6, 5, 6, 1, 2 ! Slice}
**.ue[50].macCellId = ${5, 5, 1, 6, 3, 1, 6, 3, 3, 1 ! Slice}
**.ue[50].masterId = ${5, 5, 1, 6, 3, 1, 6, 3, 3, 1 ! Slice}
**.ue[51].macCellId = ${5, 6, 1, 2, 2, 3, 6, 5, 4, 1 ! Slice}
**.ue[51].masterId = ${5, 6, 1, 2, 2, 3, 6, 5, 4, 1 ! Slice}
**.ue[52].macCellId = ${5, 6, 6, 5, 3, 4, 1, 3, 1, 1 ! Slice}
**.ue[52].masterId = ${5, 6, 6, 5, 3, 4, 1, 3, 1, 1 ! Slice}
**.ue[53].macCellId = ${5, 3, 3, 2, 2, 1, 2, 3, 5, 6 ! Slice}
**.ue[53].masterId = ${5, 3, 3, 2, 2, 1, 2, 3, 5, 6 ! Slice}
**.ue[54].macCellId = ${5, 5, 6, 4, 1, 1, 2, 1, 1, 2 ! Slice}
**.ue[54].masterId = ${5, 5, 6, 4, 1, 1, 2, 1, 1, 2 ! Slice}
**.ue[55].macCellId = ${5, 2, 4, 5, 2, 2, 5, 2, 5, 1 ! Slice}
**.ue[55].masterId = ${5, 2, 4, 5, 2, 2, 5, 2, 5, 1 ! Slice}
**.ue[56].macCellId = ${5, 5, 6, 5, 5, 6, 5, 6, 6, 5 ! Slice}
**.ue[56].masterId = ${5, 5, 6, 5, 5, 6, 5, 6, 6, 5 ! Slice}
**.ue[57].macCellId = ${5, 6, 3, 3, 2, 1, 2, 3, 4, 6 ! Slice}
**.ue[57].masterId = ${5, 6, 3, 3, 2, 1, 2, 3, 4, 6 ! Slice}
**.ue[58].macCellId = ${5, 5, 6, 3, 2, 1, 1, 6, 6, 5 ! Slice}
**.ue[58].masterId = ${5, 5, 6, 3, 2, 1, 1, 6, 6, 5 ! Slice}
**.ue[59].macCellId = ${5, 4, 1, 3, 5, 1, 1, 5, 4, 1 ! Slice}
**.ue[59].masterId = ${5, 4, 1, 3, 5, 1, 1, 5, 4, 1 ! Slice}

# Scheduler
**.schedulingDisciplineUl = ${sched= "MAXCI"}
**.schedulingDisciplineDl = ${sched}

############### Scenario ###############

# eNodeBs
**.eNB0.cellularNic.channelModel[*].scenario = "URBAN_MICROCELL"
**.eNB1.cellularNic.channelModel[*].scenario = "URBAN_MICROCELL"
**.eNB2.cellularNic.channelModel[*].scenario = "URBAN_MICROCELL"
**.eNB3.cellularNic.channelModel[*].scenario = "URBAN_MICROCELL"
**.eNB4.cellularNic.channelModel[*].scenario = "URBAN_MICROCELL"
**.eNB5.cellularNic.channelModel[*].scenario = "URBAN_MICROCELL"

# UEs
**.ue[0].cellularNic.channelModel[*].scenario = "URBAN_MICROCELL"
**.ue[1].cellularNic.channelModel[*].scenario = "URBAN_MICROCELL"
**.ue[2].cellularNic.channelModel[*].scenario = "URBAN_MICROCELL"
**.ue[3].cellularNic.channelModel[*].scenario = "URBAN_MICROCELL"
**.ue[4].cellularNic.channelModel[*].scenario = "URBAN_MICROCELL"
**.ue[5].cellularNic.channelModel[*].scenario = "URBAN_MICROCELL"
**.ue[6].cellularNic.channelModel[*].scenario = "URBAN_MICROCELL"
**.ue[7].cellularNic.channelModel[*].scenario = "URBAN_MICROCELL"
**.ue[8].cellularNic.channelModel[*].scenario = "URBAN_MICROCELL"
**.ue[9].cellularNic.channelModel[*].scenario = "URBAN_MICROCELL"
**.ue[10].cellularNic.channelModel[*].scenario = "URBAN_MICROCELL"
**.ue[11].cellularNic.channelModel[*].scenario = "URBAN_MICROCELL"
**.ue[12].cellularNic.channelModel[*].scenario = "URBAN_MICROCELL"
**.ue[13].cellularNic.channelModel[*].scenario = "URBAN_MICROCELL"
**.ue[14].cellularNic.channelModel[*].scenario = "URBAN_MICROCELL"
**.ue[15].cellularNic.channelModel[*].scenario = "URBAN_MICROCELL"
**.ue[16].cellularNic.channelModel[*].scenario = "URBAN_MICROCELL"
**.ue[17].cellularNic.channelModel[*].scenario = "URBAN_MICROCELL"
**.ue[18].cellularNic.channelModel[*].scenario = "URBAN_MICROCELL"
**.ue[19].cellularNic.channelModel[*].scenario = "URBAN_MICROCELL"
**.ue[20].cellularNic.channelModel[*].scenario = "URBAN_MICROCELL"
**.ue[21].cellularNic.channelModel[*].scenario = "URBAN_MICROCELL"
**.ue[22].cellularNic.channelModel[*].scenario = "URBAN_MICROCELL"
**.ue[23].cellularNic.channelModel[*].scenario = "URBAN_MICROCELL"
**.ue[24].cellularNic.channelModel[*].scenario = "URBAN_MICROCELL"
**.ue[25].cellularNic.channelModel[*].scenario = "URBAN_MICROCELL"
**.ue[26].cellularNic.channelModel[*].scenario = "URBAN_MICROCELL"
**.ue[27].cellularNic.channelModel[*].scenario = "URBAN_MICROCELL"
**.ue[28].cellularNic.channelModel[*].scenario = "URBAN_MICROCELL"
**.ue[29].cellularNic.channelModel[*].scenario = "URBAN_MICROCELL"
**.ue[30].cellularNic.channelModel[*].scenario = "URBAN_MICROCELL"
**.ue[31].cellularNic.channelModel[*].scenario = "URBAN_MICROCELL"
**.ue[32].cellularNic.channelModel[*].scenario = "URBAN_MICROCELL"
**.ue[33].cellularNic.channelModel[*].scenario = "URBAN_MICROCELL"
**.ue[34].cellularNic.channelModel[*].scenario = "URBAN_MICROCELL"
**.ue[35].cellularNic.channelModel[*].scenario = "URBAN_MICROCELL"
**.ue[36].cellularNic.channelModel[*].scenario = "URBAN_MICROCELL"
**.ue[37].cellularNic.channelModel[*].scenario = "URBAN_MICROCELL"
**.ue[38].cellularNic.channelModel[*].scenario = "URBAN_MICROCELL"
**.ue[39].cellularNic.channelModel[*].scenario = "URBAN_MICROCELL"
**.ue[40].cellularNic.channelModel[*].scenario = "URBAN_MICROCELL"
**.ue[41].cellularNic.channelModel[*].scenario = "URBAN_MICROCELL"
**.ue[42].cellularNic.channelModel[*].scenario = "URBAN_MICROCELL"
**.ue[43].cellularNic.channelModel[*].scenario = "URBAN_MICROCELL"
**.ue[44].cellularNic.channelModel[*].scenario = "URBAN_MICROCELL"
**.ue[45].cellularNic.channelModel[*].scenario = "URBAN_MICROCELL"
**.ue[46].cellularNic.channelModel[*].scenario = "URBAN_MICROCELL"
**.ue[47].cellularNic.channelModel[*].scenario = "URBAN_MICROCELL"
**.ue[48].cellularNic.channelModel[*].scenario = "URBAN_MICROCELL"
**.ue[49].cellularNic.channelModel[*].scenario = "URBAN_MICROCELL"
**.ue[50].cellularNic.channelModel[*].scenario = "URBAN_MICROCELL"
**.ue[51].cellularNic.channelModel[*].scenario = "URBAN_MICROCELL"
**.ue[52].cellularNic.channelModel[*].scenario = "URBAN_MICROCELL"
**.ue[53].cellularNic.channelModel[*].scenario = "URBAN_MICROCELL"
**.ue[54].cellularNic.channelModel[*].scenario = "URBAN_MICROCELL"
**.ue[55].cellularNic.channelModel[*].scenario = "URBAN_MICROCELL"
**.ue[56].cellularNic.channelModel[*].scenario = "URBAN_MICROCELL"
**.ue[57].cellularNic.channelModel[*].scenario = "URBAN_MICROCELL"
**.ue[58].cellularNic.channelModel[*].scenario = "URBAN_MICROCELL"
**.ue[59].cellularNic.channelModel[*].scenario = "URBAN_MICROCELL"

############### Mobility ###############

# eNodeB
*.eNB0.mobility.initialX = 1400.0m
*.eNB0.mobility.initialY = 1000.0m
*.eNB0.mobility.initialZ = 0m
*.eNB0.mobility.initFromDisplayString = false
*.eNB1.mobility.initialX = 3400.0m
*.eNB1.mobility.initialY = 1000.0m
*.eNB1.mobility.initialZ = 0m
*.eNB1.mobility.initFromDisplayString = false
*.eNB2.mobility.initialX = 600.0m
*.eNB2.mobility.initialY = 1800.0m
*.eNB2.mobility.initialZ = 0m
*.eNB2.mobility.initFromDisplayString = false
*.eNB3.mobility.initialX = 3000.0m
*.eNB3.mobility.initialY = 2200.0m
*.eNB3.mobility.initialZ = 0m
*.eNB3.mobility.initFromDisplayString = false
*.eNB4.mobility.initialX = 3000.0m
*.eNB4.mobility.initialY = 2600.0m
*.eNB4.mobility.initialZ = 0m
*.eNB4.mobility.initFromDisplayString = false
*.eNB5.mobility.initialX = 1000.0m
*.eNB5.mobility.initialY = 3400.0m
*.eNB5.mobility.initialZ = 0m
*.eNB5.mobility.initFromDisplayString = false
*.eNB*.mobility.constraintAreaMaxX = 4000 m
*.eNB*.mobility.constraintAreaMaxY = 4000 m
*.eNB*.mobility.constraintAreaMaxZ = inf m
*.eNB*.mobility.constraintAreaMinX = 0 m
*.eNB*.mobility.constraintAreaMinY = 0 m
*.eNB*.mobility.constraintAreaMinZ = -inf m

# UEs

*.ue[*].mobilityType = "LinearMobility"
*.ue[0].mobility.initialX = ${2687.0992288143666m, 3181.76m, 2871.58m, 1347.17m, 342.371m, 994.106m, 1965.99m, 2811.17m, 3606.6m, 3162.94m ! Slice}
*.ue[0].mobility.initialY = ${2613.8033268519475m, 1015.71m, 38.2494m, 3301.11m, 2430.24m, 779.447m, 2558.89m, 3344.73m, 608.165m, 907.656m ! Slice}
*.ue[0].mobility.initialZ = ${0m, 0.0m, 0.0m, 0.0m, 0.0m, 0.0m, 0.0m, 0.0m, 0.0m, 0.0m ! Slice}
*.ue[0].mobility.initFromDisplayString = false
*.ue[1].mobility.initialX = ${2749.549215403863m, 858.252m, 472.136m, 2050.24m, 3969.53m, 1316.65m, 1062.86m, 3148.92m, 2996.63m, 1680.8m ! Slice}
*.ue[1].mobility.initialY = ${2762.41760781092m, 2786.43m, 1634.87m, 656.208m, 2662.14m, 2025.97m, 668.164m, 2956.18m, 2872.68m, 1349.98m ! Slice}
*.ue[1].mobility.initialZ = ${0m, 0.0m, 0.0m, 0.0m, 0.0m, 0.0m, 0.0m, 0.0m, 0.0m, 0.0m ! Slice}
*.ue[1].mobility.initFromDisplayString = false
*.ue[2].mobility.initialX = ${2753.7264764515935m, 2612.87m, 2464.99m, 2362.69m, 2283.11m, 2235.05m, 2151.57m, 2042.59m, 1926.74m, 1820.0m ! Slice}
*.ue[2].mobility.initialY = ${2571.39165165771m, 909.442m, 3394.21m, 1614.6m, 992.318m, 2159.79m, 2990.01m, 55.836m, 3425.79m, 1321.11m ! Slice}
*.ue[2].mobility.initialZ = ${0m, 0.0m, 0.0m, 0.0m, 0.0m, 0.0m, 0.0m, 0.0m, 0.0m, 0.0m ! Slice}
*.ue[2].mobility.initFromDisplayString = false
*.ue[3].mobility.initialX = ${2714.4587591738427m, 625.532m, 1455.98m, 3520.2m, 2067.5m, 1768.25m, 3222.99m, 1302.42m, 1578.83m, 2538.9m ! Slice}
*.ue[3].mobility.initialY = ${2697.3022718482894m, 1287.67m, 63.8647m, 1509.93m, 3102.21m, 2380.4m, 546.372m, 1123.27m, 2852.34m, 2509.47m ! Slice}
*.ue[3].mobility.initialZ = ${0m, 0.0m, 0.0m, 0.0m, 0.0m, 0.0m, 0.0m, 0.0m, 0.0m, 0.0m ! Slice}
*.ue[3].mobility.initFromDisplayString = false
*.ue[4].mobility.initialX = ${2951.137924809653m, 1757.72m, 28.7838m, 2197.94m, 1650.26m, 830.818m, 805.983m, 3879.3m, 662.424m, 1932.97m ! Slice}
*.ue[4].mobility.initialY = ${2755.6280473314023m, 2219.49m, 1882.17m, 1494.74m, 827.147m, 629.785m, 371.07m, 300.52m, 791.451m, 1230.99m ! Slice}
*.ue[4].mobility.initialZ = ${0m, 0.0m, 0.0m, 0.0m, 0.0m, 0.0m, 0.0m, 0.0m, 0.0m, 0.0m ! Slice}
*.ue[4].mobility.initFromDisplayString = false
*.ue[5].mobility.initialX = ${2952.082651689557m, 1231.94m, 1803.6m, 2329.16m, 1413.23m, 3614.4m, 1373.14m, 2595.15m, 2056.1m, 1767.56m ! Slice}
*.ue[5].mobility.initialY = ${2759.0608916971873m, 3498.37m, 3795.16m, 3130.17m, 2373.91m, 1825.16m, 1212.9m, 439.032m, 313.605m, 995.147m ! Slice}
*.ue[5].mobility.initialZ = ${0m, 0.0m, 0.0m, 0.0m, 0.0m, 0.0m, 0.0m, 0.0m, 0.0m, 0.0m ! Slice}
*.ue[5].mobility.initFromDisplayString = false
*.ue[6].mobility.initialX = ${3018.9053629088867m, 1488.33m, 1908.0m, 3942.54m, 1578.53m, 1312.26m, 3659.99m, 2020.83m, 1778.89m, 3713.12m ! Slice}
*.ue[6].mobility.initialY = ${2717.89968665999m, 1694.24m, 717.017m, 2014.83m, 3595.9m, 2601.05m, 900.543m, 785.169m, 2949.76m, 3352.45m ! Slice}
*.ue[6].mobility.initialZ = ${0m, 0.0m, 0.0m, 0.0m, 0.0m, 0.0m, 0.0m, 0.0m, 0.0m, 0.0m ! Slice}
*.ue[6].mobility.initFromDisplayString = false
*.ue[7].mobility.initialX = ${2614.443166437051m, 1281.9m, 2217.82m, 3069.42m, 1418.19m, 714.733m, 2616.09m, 2993.52m, 1486.84m, 2875.6m ! Slice}
*.ue[7].mobility.initialY = ${2900.6798790756193m, 3920.04m, 1023.51m, 1427.06m, 3039.25m, 3661.81m, 1449.32m, 758.158m, 2058.41m, 1955.74m ! Slice}
*.ue[7].mobility.initialZ = ${0m, 0.0m, 0.0m, 0.0m, 0.0m, 0.0m, 0.0m, 0.0m, 0.0m, 0.0m ! Slice}
*.ue[7].mobility.initFromDisplayString = false
*.ue[8].mobility.initialX = ${2703.8116500392634m, 2245.54m, 1926.7m, 1148.33m, 371.202m, 481.856m, 1059.98m, 1312.34m, 1864.65m, 2424.43m ! Slice}
*.ue[8].mobility.initialY = ${2904.149713038535m, 1069.36m, 380.253m, 3323.49m, 1496.43m, 1866.04m, 3835.15m, 2824.78m, 613.498m, 1703.14m ! Slice}
*.ue[8].mobility.initialZ = ${0m, 0.0m, 0.0m, 0.0m, 0.0m, 0.0m, 0.0m, 0.0m, 0.0m, 0.0m ! Slice}
*.ue[8].mobility.initFromDisplayString = false
*.ue[9].mobility.initialX = ${2579.608175163867m, 1183.44m, 2419.53m, 2337.22m, 1109.02m, 3699.96m, 2081.67m, 2460.91m, 2142.1m, 251.972m ! Slice}
*.ue[9].mobility.initialY = ${3021.351888217782m, 3422.54m, 3639.0m, 3995.53m, 3591.61m, 3214.39m, 2940.31m, 2425.25m, 1995.77m, 1663.58m ! Slice}
*.ue[9].mobility.initialZ = ${0m, 0.0m, 0.0m, 0.0m, 0.0m, 0.0m, 0.0m, 0.0m, 0.0m, 0.0m ! Slice}
*.ue[9].mobility.initFromDisplayString = false
*.ue[10].mobility.initialX = ${2661.55787138368m, 3640.65m, 3404.49m, 2153.07m, 1057.43m, 38.2779m, 761.894m, 1535.95m, 2231.65m, 3180.25m ! Slice}
*.ue[10].mobility.initialY = ${2982.829004143702m, 433.978m, 1951.47m, 2320.76m, 161.806m, 2814.93m, 2917.77m, 1086.92m, 901.262m, 3193.63m ! Slice}
*.ue[10].mobility.initialZ = ${0m, 0.0m, 0.0m, 0.0m, 0.0m, 0.0m, 0.0m, 0.0m, 0.0m, 0.0m ! Slice}
*.ue[10].mobility.initFromDisplayString = false
*.ue[11].mobility.initialX = ${2698.487688639267m, 1159.2m, 824.244m, 3315.57m, 802.568m, 1963.17m, 3191.11m, 3491.65m, 130.953m, 2273.83m ! Slice}
*.ue[11].mobility.initialY = ${3080.153719689354m, 2778.53m, 2428.6m, 1901.71m, 1156.96m, 618.413m, 358.504m, 127.457m, 579.004m, 1029.35m ! Slice}
*.ue[11].mobility.initialZ = ${0m, 0.0m, 0.0m, 0.0m, 0.0m, 0.0m, 0.0m, 0.0m, 0.0m, 0.0m ! Slice}
*.ue[11].mobility.initFromDisplayString = false
*.ue[12].mobility.initialX = ${2586.2237643989124m, 3858.77m, 2317.13m, 515.721m, 730.208m, 2732.56m, 2745.43m, 703.678m, 1021.91m, 2922.39m ! Slice}
*.ue[12].mobility.initialY = ${3122.3385094558753m, 2410.33m, 313.744m, 2359.13m, 3920.5m, 871.386m, 2646.3m, 1921.02m, 619.635m, 3198.99m ! Slice}
*.ue[12].mobility.initialZ = ${0m, 0.0m, 0.0m, 0.0m, 0.0m, 0.0m, 0.0m, 0.0m, 0.0m, 0.0m ! Slice}
*.ue[12].mobility.initFromDisplayString = false
*.ue[13].mobility.initialX = ${2497.213391216947m, 1212.2m, 86.5874m, 1180.46m, 2330.12m, 3247.07m, 3199.51m, 2232.67m, 539.442m, 1088.8m ! Slice}
*.ue[13].mobility.initialY = ${2985.8581976758474m, 120.337m, 2841.21m, 1917.05m, 1039.99m, 2899.46m, 1489.42m, 1253.31m, 2364.93m, 1342.67m ! Slice}
*.ue[13].mobility.initialZ = ${0m, 0.0m, 0.0m, 0.0m, 0.0m, 0.0m, 0.0m, 0.0m, 0.0m, 0.0m ! Slice}
*.ue[13].mobility.initFromDisplayString = false
*.ue[14].mobility.initialX = ${2496.4769960082717m, 618.24m, 3250.65m, 1791.62m, 1146.66m, 3957.73m, 1728.78m, 498.09m, 2214.85m, 2463.62m ! Slice}
*.ue[14].mobility.initialY = ${3085.218380233929m, 1447.63m, 2107.28m, 3211.45m, 1211.89m, 1712.49m, 3534.12m, 2732.61m, 1027.53m, 1762.65m ! Slice}
*.ue[14].mobility.initialZ = ${0m, 0.0m, 0.0m, 0.0m, 0.0m, 0.0m, 0.0m, 0.0m, 0.0m, 0.0m ! Slice}
*.ue[14].mobility.initFromDisplayString = false
*.ue[15].mobility.initialX = ${2502.495309178258m, 1745.15m, 1382.18m, 979.907m, 245.305m, 294.516m, 763.839m, 1350.79m, 1744.63m, 2158.93m ! Slice}
*.ue[15].mobility.initialY = ${3112.907295440926m, 905.502m, 1309.85m, 3829.69m, 1452.03m, 3990.87m, 675.13m, 3262.52m, 2126.91m, 914.583m ! Slice}
*.ue[15].mobility.initialZ = ${0m, 0.0m, 0.0m, 0.0m, 0.0m, 0.0m, 0.0m, 0.0m, 0.0m, 0.0m ! Slice}
*.ue[15].mobility.initFromDisplayString = false
*.ue[16].mobility.initialX = ${2548.8136816818715m, 3314.85m, 2839.4m, 530.898m, 1786.24m, 3840.58m, 2043.24m, 655.088m, 1637.06m, 3877.82m ! Slice}
*.ue[16].mobility.initialY = ${2890.7329595064025m, 3619.82m, 2677.84m, 426.296m, 1763.28m, 3734.33m, 2238.34m, 31.9891m, 1251.24m, 3383.92m ! Slice}
*.ue[16].mobility.initialZ = ${0m, 0.0m, 0.0m, 0.0m, 0.0m, 0.0m, 0.0m, 0.0m, 0.0m, 0.0m ! Slice}
*.ue[16].mobility.initFromDisplayString = false
*.ue[17].mobility.initialX = ${2852.393147524901m, 2670.07m, 1327.26m, 2731.92m, 1022.03m, 2081.41m, 2477.54m, 1279.3m, 2361.39m, 2164.83m ! Slice}
*.ue[17].mobility.initialY = ${3014.007529961885m, 3483.1m, 3811.2m, 3359.4m, 2501.46m, 1842.06m, 1164.28m, 410.729m, 80.3482m, 592.212m ! Slice}
*.ue[17].mobility.initialZ = ${0m, 0.0m, 0.0m, 0.0m, 0.0m, 0.0m, 0.0m, 0.0m, 0.0m, 0.0m ! Slice}
*.ue[17].mobility.initFromDisplayString = false
*.ue[18].mobility.initialX = ${3113.1754812363856m, 2202.33m, 213.849m, 1529.66m, 3984.85m, 1780.43m, 212.381m, 631.905m, 3965.12m, 1431.61m ! Slice}
*.ue[18].mobility.initialY = ${3105.596807779505m, 979.196m, 1006.33m, 2335.77m, 3277.22m, 1685.82m, 355.893m, 395.333m, 3187.22m, 2503.92m ! Slice}
*.ue[18].mobility.initialZ = ${0m, 0.0m, 0.0m, 0.0m, 0.0m, 0.0m, 0.0m, 0.0m, 0.0m, 0.0m ! Slice}
*.ue[18].mobility.initFromDisplayString = false
*.ue[19].mobility.initialX = ${3054.6830132766154m, 3449.52m, 3014.51m, 1804.63m, 904.561m, 46.8016m, 863.341m, 2636.76m, 3505.0m, 3104.48m ! Slice}
*.ue[19].mobility.initialY = ${2990.0190788452646m, 1984.14m, 2045.17m, 2601.8m, 695.953m, 1584.75m, 3807.88m, 325.764m, 2537.67m, 1879.65m ! Slice}
*.ue[19].mobility.initialZ = ${0m, 0.0m, 0.0m, 0.0m, 0.0m, 0.0m, 0.0m, 0.0m, 0.0m, 0.0m ! Slice}
*.ue[19].mobility.initFromDisplayString = false
*.ue[20].mobility.initialX = ${3109.027743194427m, 2257.55m, 27.3499m, 2680.99m, 3274.9m, 1614.08m, 1664.66m, 3708.03m, 1324.72m, 1502.79m ! Slice}
*.ue[20].mobility.initialY = ${2974.7767172497333m, 2245.4m, 1529.94m, 725.378m, 180.191m, 400.98m, 1264.56m, 1956.28m, 2833.73m, 3616.23m ! Slice}
*.ue[20].mobility.initialZ = ${0m, 0.0m, 0.0m, 0.0m, 0.0m, 0.0m, 0.0m, 0.0m, 0.0m, 0.0m ! Slice}
*.ue[20].mobility.initFromDisplayString = false
*.ue[21].mobility.initialX = ${3116.8408515793585m, 2316.41m, 381.424m, 1154.12m, 2030.38m, 3151.35m, 1398.62m, 722.211m, 2527.19m, 2432.81m ! Slice}
*.ue[21].mobility.initialY = ${2869.4033303974356m, 233.611m, 2095.06m, 3749.55m, 3226.87m, 2009.03m, 2010.25m, 3871.75m, 1875.04m, 1527.61m ! Slice}
*.ue[21].mobility.initialZ = ${0m, 0.0m, 0.0m, 0.0m, 0.0m, 0.0m, 0.0m, 0.0m, 0.0m, 0.0m ! Slice}
*.ue[21].mobility.initFromDisplayString = false
*.ue[22].mobility.initialX = ${2917.4271722479m, 3322.21m, 218.362m, 3068.51m, 3420.25m, 1043.01m, 1852.74m, 3983.91m, 1595.77m, 909.398m ! Slice}
*.ue[22].mobility.initialY = ${3065.104845080669m, 3753.13m, 2733.05m, 1302.32m, 682.768m, 556.614m, 1651.71m, 2685.21m, 3749.5m, 3226.19m ! Slice}
*.ue[22].mobility.initialZ = ${0m, 0.0m, 0.0m, 0.0m, 0.0m, 0.0m, 0.0m, 0.0m, 0.0m, 0.0m ! Slice}
*.ue[22].mobility.initFromDisplayString = false
*.ue[23].mobility.initialX = ${2913.28658284505m, 1768.95m, 45.5385m, 1615.25m, 3940.17m, 1561.11m, 1638.43m, 3810.13m, 253.698m, 1424.29m ! Slice}
*.ue[23].mobility.initialY = ${2863.9122766874466m, 1736.19m, 51.9552m, 1598.87m, 3890.04m, 1647.51m, 1527.39m, 3645.75m, 451.142m, 1192.44m ! Slice}
*.ue[23].mobility.initialZ = ${0m, 0.0m, 0.0m, 0.0m, 0.0m, 0.0m, 0.0m, 0.0m, 0.0m, 0.0m ! Slice}
*.ue[23].mobility.initFromDisplayString = false
*.ue[24].mobility.initialX = ${3091.1979401574845m, 3919.24m, 2827.83m, 1339.0m, 935.693m, 2757.91m, 3655.42m, 3222.44m, 1198.91m, 1525.84m ! Slice}
*.ue[24].mobility.initialY = ${2881.746144699895m, 3981.81m, 2353.66m, 375.725m, 2365.6m, 2654.73m, 1100.42m, 249.793m, 2473.4m, 1947.89m ! Slice}
*.ue[24].mobility.initialZ = ${0m, 0.0m, 0.0m, 0.0m, 0.0m, 0.0m, 0.0m, 0.0m, 0.0m, 0.0m ! Slice}
*.ue[24].mobility.initFromDisplayString = false
*.ue[25].mobility.initialX = ${2945.2136219635972m, 1340.7m, 2355.38m, 3608.62m, 2971.49m, 1917.78m, 128.885m, 2785.52m, 3240.32m, 9.8266m ! Slice}
*.ue[25].mobility.initialY = ${3004.7739768429196m, 3573.74m, 3125.44m, 2671.2m, 2186.63m, 1794.06m, 1159.7m, 126.241m, 512.919m, 1719.35m ! Slice}
*.ue[25].mobility.initialZ = ${0m, 0.0m, 0.0m, 0.0m, 0.0m, 0.0m, 0.0m, 0.0m, 0.0m, 0.0m ! Slice}
*.ue[25].mobility.initFromDisplayString = false
*.ue[26].mobility.initialX = ${3234.0506097378625m, 3757.79m, 3781.43m, 3127.78m, 2716.91m, 2015.2m, 1182.4m, 444.664m, 193.869m, 574.627m ! Slice}