[General]
sim-time-limit = 10s

############### Statistics ###############
output-scalar-file = ${resultdir}/${configname}/${repetition}.sca
output-vector-file = ${resultdir}/${configname}/${repetition}.vec
**.vector-recording = false
seed-set = ${repetition}

############### Resource Blocks ###############
**.numRbDl = 6
**.numRbUl = 6
**.binder.numBands = 6 # this value should be kept equal to the number of RBs

[Config Teste]
network = networks.UrbanMacro
sim-time-limit = 10s
repeat = 10
seed-set = ${repetition}
num-rngs = 2
seed-1-mt = 123

output-scalar-file = ${resultdir}/${configname}/${sched}-${repetition}.sca
output-vector-file = ${resultdir}/${configname}/${sched}-${repetition}.vec
**.vector-recording = false

############### Micro Cell ###############
**.microCell0.cellInfo.microCell = true
**.microCell1.cellInfo.microCell = true
**.microCell2.cellInfo.microCell = true
**.microCell3.cellInfo.microCell = true
**.microCell4.cellInfo.microCell = true
**.microCell5.cellInfo.microCell = true
**.microCell6.cellInfo.microCell = true

############### Transmission Power ###############
**.ueTxPower = 24
**.eNodeBTxPower = 46
**.microTxPower = 30

############### UEs ###############
**.numUe = 30

# Conecting UEs to eNodeB
**.ue0[0].macCellId = 0
**.ue0[0].masterId = 0
**.ue0[1].macCellId = 0
**.ue0[1].masterId = 0
**.ue0[2].macCellId = 0
**.ue0[2].masterId = 0
**.ue0[3].macCellId = 0
**.ue0[3].masterId = 0
**.ue0[4].macCellId = 0
**.ue0[4].masterId = 0
**.ue0[5].macCellId = 0
**.ue0[5].masterId = 0
**.ue0[6].macCellId = 0
**.ue0[6].masterId = 0
**.ue0[7].macCellId = 0
**.ue0[7].masterId = 0
**.ue0[8].macCellId = 0
**.ue0[8].masterId = 0
**.ue0[9].macCellId = 0
**.ue0[9].masterId = 0
**.ue0[10].macCellId = 7
**.ue0[10].masterId = 7
**.ue0[11].macCellId = 7
**.ue0[11].masterId = 7
**.ue0[12].macCellId = 7
**.ue0[12].masterId = 7
**.ue0[13].macCellId = 7
**.ue0[13].masterId = 7
**.ue0[14].macCellId = 7
**.ue0[14].masterId = 7
**.ue0[15].macCellId = 7
**.ue0[15].masterId = 7
**.ue0[16].macCellId = 7
**.ue0[16].masterId = 7
**.ue0[17].macCellId = 7
**.ue0[17].masterId = 7
**.ue0[18].macCellId = 7
**.ue0[18].masterId = 7
**.ue0[19].macCellId = 7
**.ue0[19].masterId = 7
**.ue0[20].macCellId = 7
**.ue0[20].masterId = 7
**.ue0[21].macCellId = 7
**.ue0[21].masterId = 7
**.ue0[22].macCellId = 7
**.ue0[22].masterId = 7
**.ue0[23].macCellId = 7
**.ue0[23].masterId = 7
**.ue0[24].macCellId = 7
**.ue0[24].masterId = 7
**.ue0[25].macCellId = 7
**.ue0[25].masterId = 7
**.ue0[26].macCellId = 7
**.ue0[26].masterId = 7
**.ue0[27].macCellId = 7
**.ue0[27].masterId = 7
**.ue0[28].macCellId = 7
**.ue0[28].masterId = 7
**.ue0[29].macCellId = 7
**.ue0[29].masterId = 7
**.ue1[0].macCellId = 1
**.ue1[0].masterId = 1
**.ue1[1].macCellId = 1
**.ue1[1].masterId = 1
**.ue1[2].macCellId = 1
**.ue1[2].masterId = 1
**.ue1[3].macCellId = 1
**.ue1[3].masterId = 1
**.ue1[4].macCellId = 1
**.ue1[4].masterId = 1
**.ue1[5].macCellId = 1
**.ue1[5].masterId = 1
**.ue1[6].macCellId = 1
**.ue1[6].masterId = 1
**.ue1[7].macCellId = 1
**.ue1[7].masterId = 1
**.ue1[8].macCellId = 1
**.ue1[8].masterId = 1
**.ue1[9].macCellId = 1
**.ue1[9].masterId = 1
**.ue1[10].macCellId = 1
**.ue1[10].masterId = 1
**.ue1[11].macCellId = 1
**.ue1[11].masterId = 1
**.ue1[12].macCellId = 8
**.ue1[12].masterId = 8
**.ue1[13].macCellId = 8
**.ue1[13].masterId = 8
**.ue1[14].macCellId = 8
**.ue1[14].masterId = 8
**.ue1[15].macCellId = 8
**.ue1[15].masterId = 8
**.ue1[16].macCellId = 8
**.ue1[16].masterId = 8
**.ue1[17].macCellId = 8
**.ue1[17].masterId = 8
**.ue1[18].macCellId = 8
**.ue1[18].masterId = 8
**.ue1[19].macCellId = 8
**.ue1[19].masterId = 8
**.ue1[20].macCellId = 8
**.ue1[20].masterId = 8
**.ue1[21].macCellId = 8
**.ue1[21].masterId = 8
**.ue1[22].macCellId = 8
**.ue1[22].masterId = 8
**.ue1[23].macCellId = 8
**.ue1[23].masterId = 8
**.ue1[24].macCellId = 8
**.ue1[24].masterId = 8
**.ue1[25].macCellId = 8
**.ue1[25].masterId = 8
**.ue1[26].macCellId = 8
**.ue1[26].masterId = 8
**.ue1[27].macCellId = 8
**.ue1[27].masterId = 8
**.ue1[28].macCellId = 8
**.ue1[28].masterId = 8
**.ue1[29].macCellId = 8
**.ue1[29].masterId = 8
**.ue2[0].macCellId = 2
**.ue2[0].masterId = 2
**.ue2[1].macCellId = 2
**.ue2[1].masterId = 2
**.ue2[2].macCellId = 2
**.ue2[2].masterId = 2
**.ue2[3].macCellId = 2
**.ue2[3].masterId = 2
**.ue2[4].macCellId = 2
**.ue2[4].masterId = 2
**.ue2[5].macCellId = 2
**.ue2[5].masterId = 2
**.ue2[6].macCellId = 2
**.ue2[6].masterId = 2
**.ue2[7].macCellId = 2
**.ue2[7].masterId = 2
**.ue2[8].macCellId = 9
**.ue2[8].masterId = 9
**.ue2[9].macCellId = 9
**.ue2[9].masterId = 9
**.ue2[10].macCellId = 9
**.ue2[10].masterId = 9
**.ue2[11].macCellId = 9
**.ue2[11].masterId = 9
**.ue2[12].macCellId = 9
**.ue2[12].masterId = 9
**.ue2[13].macCellId = 9
**.ue2[13].masterId = 9
**.ue2[14].macCellId = 9
**.ue2[14].masterId = 9
**.ue2[15].macCellId = 9
**.ue2[15].masterId = 9
**.ue2[16].macCellId = 9
**.ue2[16].masterId = 9
**.ue2[17].macCellId = 9
**.ue2[17].masterId = 9
**.ue2[18].macCellId = 9
**.ue2[18].masterId = 9
**.ue2[19].macCellId = 9
**.ue2[19].masterId = 9
**.ue2[20].macCellId = 9
**.ue2[20].masterId = 9
**.ue2[21].macCellId = 9
**.ue2[21].masterId = 9
**.ue2[22].macCellId = 9
**.ue2[22].masterId = 9
**.ue2[23].macCellId = 9
**.ue2[23].masterId = 9
**.ue2[24].macCellId = 9
**.ue2[24].masterId = 9
**.ue2[25].macCellId = 9
**.ue2[25].masterId = 9
**.ue2[26].macCellId = 9
**.ue2[26].masterId = 9
**.ue2[27].macCellId = 9
**.ue2[27].masterId = 9
**.ue2[28].macCellId = 9
**.ue2[28].masterId = 9
**.ue2[29].macCellId = 9
**.ue2[29].masterId = 9
**.ue3[0].macCellId = 3
**.ue3[0].masterId = 3
**.ue3[1].macCellId = 3
**.ue3[1].masterId = 3
**.ue3[2].macCellId = 3
**.ue3[2].masterId = 3
**.ue3[3].macCellId = 3
**.ue3[3].masterId = 3
**.ue3[4].macCellId = 3
**.ue3[4].masterId = 3
**.ue3[5].macCellId = 3
**.ue3[5].masterId = 3
**.ue3[6].macCellId = 3
**.ue3[6].masterId = 3
**.ue3[7].macCellId = 3
**.ue3[7].masterId = 3
**.ue3[8].macCellId = 3
**.ue3[8].masterId = 3
**.ue3[9].macCellId = 3
**.ue3[9].masterId = 3
**.ue3[10].macCellId = 3
**.ue3[10].masterId = 3
**.ue3[11].macCellId = 3
**.ue3[11].masterId = 3
**.ue3[12].macCellId = 3
**.ue3[12].masterId = 3
**.ue3[13].macCellId = 10
**.ue3[13].masterId = 10
**.ue3[14].macCellId = 10
**.ue3[14].masterId = 10
**.ue3[15].macCellId = 10
**.ue3[15].masterId = 10
**.ue3[16].macCellId = 10
**.ue3[16].masterId = 10
**.ue3[17].macCellId = 10
**.ue3[17].masterId = 10
**.ue3[18].macCellId = 10
**.ue3[18].masterId = 10
**.ue3[19].macCellId = 10
**.ue3[19].masterId = 10
**.ue3[20].macCellId = 10
**.ue3[20].masterId = 10
**.ue3[21].macCellId = 10
**.ue3[21].masterId = 10
**.ue3[22].macCellId = 10
**.ue3[22].masterId = 10
**.ue3[23].macCellId = 10
**.ue3[23].masterId = 10
**.ue3[24].macCellId = 10
**.ue3[24].masterId = 10
**.ue3[25].macCellId = 10
**.ue3[25].masterId = 10
**.ue3[26].macCellId = 10
**.ue3[26].masterId = 10
**.ue3[27].macCellId = 10
**.ue3[27].masterId = 10
**.ue3[28].macCellId = 10
**.ue3[28].masterId = 10
**.ue3[29].macCellId = 10
**.ue3[29].masterId = 10
**.ue4[0].macCellId = 4
**.ue4[0].masterId = 4
**.ue4[1].macCellId = 4
**.ue4[1].masterId = 4
**.ue4[2].macCellId = 4
**.ue4[2].masterId = 4
**.ue4[3].macCellId = 4
**.ue4[3].masterId = 4
**.ue4[4].macCellId = 4
**.ue4[4].masterId = 4
**.ue4[5].macCellId = 4
**.ue4[5].masterId = 4
**.ue4[6].macCellId = 4
**.ue4[6].masterId = 4
**.ue4[7].macCellId = 4
**.ue4[7].masterId = 4
**.ue4[8].macCellId = 4
**.ue4[8].masterId = 4
**.ue4[9].macCellId = 4
**.ue4[9].masterId = 4
**.ue4[10].macCellId = 4
**.ue4[10].masterId = 4
**.ue4[11].macCellId = 11
**.ue4[11].masterId = 11
**.ue4[12].macCellId = 11
**.ue4[12].masterId = 11
**.ue4[13].macCellId = 11
**.ue4[13].masterId = 11
**.ue4[14].macCellId = 11
**.ue4[14].masterId = 11
**.ue4[15].macCellId = 11
**.ue4[15].masterId = 11
**.ue4[16].macCellId = 11
**.ue4[16].masterId = 11
**.ue4[17].macCellId = 11
**.ue4[17].masterId = 11
**.ue4[18].macCellId = 11
**.ue4[18].masterId = 11
**.ue4[19].macCellId = 11
**.ue4[19].masterId = 11
**.ue4[20].macCellId = 11
**.ue4[20].masterId = 11
**.ue4[21].macCellId = 11
**.ue4[21].masterId = 11
**.ue4[22].macCellId = 11
**.ue4[22].masterId = 11
**.ue4[23].macCellId = 11
**.ue4[23].masterId = 11
**.ue4[24].macCellId = 11
**.ue4[24].masterId = 11
**.ue4[25].macCellId = 11
**.ue4[25].masterId = 11
**.ue4[26].macCellId = 11
**.ue4[26].masterId = 11
**.ue4[27].macCellId = 11
**.ue4[27].masterId = 11
**.ue4[28].macCellId = 11
**.ue4[28].masterId = 11
**.ue4[29].macCellId = 11
**.ue4[29].masterId = 11
**.ue5[0].macCellId = 5
**.ue5[0].masterId = 5
**.ue5[1].macCellId = 5
**.ue5[1].masterId = 5
**.ue5[2].macCellId = 5
**.ue5[2].masterId = 5
**.ue5[3].macCellId = 5
**.ue5[3].masterId = 5
**.ue5[4].macCellId = 5
**.ue5[4].masterId = 5
**.ue5[5].macCellId = 5
**.ue5[5].masterId = 5
**.ue5[6].macCellId = 5
**.ue5[6].masterId = 5
**.ue5[7].macCellId = 5
**.ue5[7].masterId = 5
**.ue5[8].macCellId = 12
**.ue5[8].masterId = 12
**.ue5[9].macCellId = 12
**.ue5[9].masterId = 12
**.ue5[10].macCellId = 12
**.ue5[10].masterId = 12
**.ue5[11].macCellId = 12
**.ue5[11].masterId = 12
**.ue5[12].macCellId = 12
**.ue5[12].masterId = 12
**.ue5[13].macCellId = 12
**.ue5[13].masterId = 12
**.ue5[14].macCellId = 12
**.ue5[14].masterId = 12
**.ue5[15].macCellId = 12
**.ue5[15].masterId = 12
**.ue5[16].macCellId = 12
**.ue5[16].masterId = 12
**.ue5[17].macCellId = 12
**.ue5[17].masterId = 12
**.ue5[18].macCellId = 12
**.ue5[18].masterId = 12
**.ue5[19].macCellId = 12
**.ue5[19].masterId = 12
**.ue5[20].macCellId = 12
**.ue5[20].masterId = 12
**.ue5[21].macCellId = 12
**.ue5[21].masterId = 12
**.ue5[22].macCellId = 12
**.ue5[22].masterId = 12
**.ue5[23].macCellId = 12
**.ue5[23].masterId = 12
**.ue5[24].macCellId = 12
**.ue5[24].masterId = 12
**.ue5[25].macCellId = 12
**.ue5[25].masterId = 12
**.ue5[26].macCellId = 12
**.ue5[26].masterId = 12
**.ue5[27].macCellId = 12
**.ue5[27].masterId = 12
**.ue5[28].macCellId = 12
**.ue5[28].masterId = 12
**.ue5[29].macCellId = 12
**.ue5[29].masterId = 12
**.ue6[0].macCellId = 6
**.ue6[0].masterId = 6
**.ue6[1].macCellId = 6
**.ue6[1].masterId = 6
**.ue6[2].macCellId = 6
**.ue6[2].masterId = 6
**.ue6[3].macCellId = 6
**.ue6[3].masterId = 6
**.ue6[4].macCellId = 6
**.ue6[4].masterId = 6
**.ue6[5].macCellId = 6
**.ue6[5].masterId = 6
**.ue6[6].macCellId = 6
**.ue6[6].masterId = 6
**.ue6[7].macCellId = 6
**.ue6[7].masterId = 6
**.ue6[8].macCellId = 6
**.ue6[8].masterId = 6
**.ue6[9].macCellId = 6
**.ue6[9].masterId = 6
**.ue6[10].macCellId = 6
**.ue6[10].masterId = 6
**.ue6[11].macCellId = 6
**.ue6[11].masterId = 6
**.ue6[12].macCellId = 6
**.ue6[12].masterId = 6
**.ue6[13].macCellId = 13
**.ue6[13].masterId = 13
**.ue6[14].macCellId = 13
**.ue6[14].masterId = 13
**.ue6[15].macCellId = 13
**.ue6[15].masterId = 13
**.ue6[16].macCellId = 13
**.ue6[16].masterId = 13
**.ue6[17].macCellId = 13
**.ue6[17].masterId = 13
**.ue6[18].macCellId = 13
**.ue6[18].masterId = 13
**.ue6[19].macCellId = 13
**.ue6[19].masterId = 13
**.ue6[20].macCellId = 13
**.ue6[20].masterId = 13
**.ue6[21].macCellId = 13
**.ue6[21].masterId = 13
**.ue6[22].macCellId = 13
**.ue6[22].masterId = 13
**.ue6[23].macCellId = 13
**.ue6[23].masterId = 13
**.ue6[24].macCellId = 13
**.ue6[24].masterId = 13
**.ue6[25].macCellId = 13
**.ue6[25].masterId = 13
**.ue6[26].macCellId = 13
**.ue6[26].masterId = 13
**.ue6[27].macCellId = 13
**.ue6[27].masterId = 13
**.ue6[28].macCellId = 13
**.ue6[28].masterId = 13
**.ue6[29].macCellId = 13
**.ue6[29].masterId = 13

# Scheduler
**.schedulingDisciplineUl = ${sched= "MAXCI", "DRR", "PF", "ALLOCATOR_BESTFIT"}
**.schedulingDisciplineDl = ${sched}

############### Mobility ###############

# eNodeB
**.eNB0.lteNic.channelModel.scenario = "URBAN_MACROCELL"
**.eNB1.lteNic.channelModel.scenario = "URBAN_MACROCELL"
**.eNB2.lteNic.channelModel.scenario = "URBAN_MACROCELL"
**.eNB3.lteNic.channelModel.scenario = "URBAN_MACROCELL"
**.eNB4.lteNic.channelModel.scenario = "URBAN_MACROCELL"
**.eNB5.lteNic.channelModel.scenario = "URBAN_MACROCELL"
**.eNB6.lteNic.channelModel.scenario = "URBAN_MACROCELL"

# Microcell
**.microCell0.lteNic.channelModel.scenario = "URBAN_MICROCELL"
**.microCell1.lteNic.channelModel.scenario = "URBAN_MICROCELL"
**.microCell2.lteNic.channelModel.scenario = "URBAN_MICROCELL"
**.microCell3.lteNic.channelModel.scenario = "URBAN_MICROCELL"
**.microCell4.lteNic.channelModel.scenario = "URBAN_MICROCELL"
**.microCell5.lteNic.channelModel.scenario = "URBAN_MICROCELL"
**.microCell6.lteNic.channelModel.scenario = "URBAN_MICROCELL"

# UEs
**.ue0[0].lteNic.channelModel.scenario = "URBAN_MACROCELL"
**.ue0[1].lteNic.channelModel.scenario = "URBAN_MACROCELL"
**.ue0[2].lteNic.channelModel.scenario = "URBAN_MACROCELL"
**.ue0[3].lteNic.channelModel.scenario = "URBAN_MACROCELL"
**.ue0[4].lteNic.channelModel.scenario = "URBAN_MACROCELL"
**.ue0[5].lteNic.channelModel.scenario = "URBAN_MACROCELL"
**.ue0[6].lteNic.channelModel.scenario = "URBAN_MACROCELL"
**.ue0[7].lteNic.channelModel.scenario = "URBAN_MACROCELL"
**.ue0[8].lteNic.channelModel.scenario = "URBAN_MACROCELL"
**.ue0[9].lteNic.channelModel.scenario = "URBAN_MACROCELL"
**.ue0[10].lteNic.channelModel.scenario = "URBAN_MICROCELL"
**.ue0[11].lteNic.channelModel.scenario = "URBAN_MICROCELL"
**.ue0[12].lteNic.channelModel.scenario = "URBAN_MICROCELL"
**.ue0[13].lteNic.channelModel.scenario = "URBAN_MICROCELL"
**.ue0[14].lteNic.channelModel.scenario = "URBAN_MICROCELL"
**.ue0[15].lteNic.channelModel.scenario = "URBAN_MICROCELL"
**.ue0[16].lteNic.channelModel.scenario = "URBAN_MICROCELL"
**.ue0[17].lteNic.channelModel.scenario = "URBAN_MICROCELL"
**.ue0[18].lteNic.channelModel.scenario = "URBAN_MICROCELL"
**.ue0[19].lteNic.channelModel.scenario = "URBAN_MICROCELL"
**.ue0[20].lteNic.channelModel.scenario = "URBAN_MICROCELL"
**.ue0[21].lteNic.channelModel.scenario = "URBAN_MICROCELL"
**.ue0[22].lteNic.channelModel.scenario = "URBAN_MICROCELL"
**.ue0[23].lteNic.channelModel.scenario = "URBAN_MICROCELL"
**.ue0[24].lteNic.channelModel.scenario = "URBAN_MICROCELL"
**.ue0[25].lteNic.channelModel.scenario = "URBAN_MICROCELL"
**.ue0[26].lteNic.channelModel.scenario = "URBAN_MICROCELL"
**.ue0[27].lteNic.channelModel.scenario = "URBAN_MICROCELL"
**.ue0[28].lteNic.channelModel.scenario = "URBAN_MICROCELL"
**.ue0[29].lteNic.channelModel.scenario = "URBAN_MICROCELL"
**.ue1[0].lteNic.channelModel.scenario = "URBAN_MACROCELL"
**.ue1[1].lteNic.channelModel.scenario = "URBAN_MACROCELL"
**.ue1[2].lteNic.channelModel.scenario = "URBAN_MACROCELL"
**.ue1[3].lteNic.channelModel.scenario = "URBAN_MACROCELL"
**.ue1[4].lteNic.channelModel.scenario = "URBAN_MACROCELL"
**.ue1[5].lteNic.channelModel.scenario = "URBAN_MACROCELL"
**.ue1[6].lteNic.channelModel.scenario = "URBAN_MACROCELL"
**.ue1[7].lteNic.channelModel.scenario = "URBAN_MACROCELL"
**.ue1[8].lteNic.channelModel.scenario = "URBAN_MACROCELL"
**.ue1[9].lteNic.channelModel.scenario = "URBAN_MACROCELL"
**.ue1[10].lteNic.channelModel.scenario = "URBAN_MACROCELL"
**.ue1[11].lteNic.channelModel.scenario = "URBAN_MACROCELL"
**.ue1[12].lteNic.channelModel.scenario = "URBAN_MICROCELL"
**.ue1[13].lteNic.channelModel.scenario = "URBAN_MICROCELL"
**.ue1[14].lteNic.channelModel.scenario = "URBAN_MICROCELL"
**.ue1[15].lteNic.channelModel.scenario = "URBAN_MICROCELL"
**.ue1[16].lteNic.channelModel.scenario = "URBAN_MICROCELL"
**.ue1[17].lteNic.channelModel.scenario = "URBAN_MICROCELL"
**.ue1[18].lteNic.channelModel.scenario = "URBAN_MICROCELL"
**.ue1[19].lteNic.channelModel.scenario = "URBAN_MICROCELL"
**.ue1[20].lteNic.channelModel.scenario = "URBAN_MICROCELL"
**.ue1[21].lteNic.channelModel.scenario = "URBAN_MICROCELL"
**.ue1[22].lteNic.channelModel.scenario = "URBAN_MICROCELL"
**.ue1[23].lteNic.channelModel.scenario = "URBAN_MICROCELL"
**.ue1[24].lteNic.channelModel.scenario = "URBAN_MICROCELL"
**.ue1[25].lteNic.channelModel.scenario = "URBAN_MICROCELL"
**.ue1[26].lteNic.channelModel.scenario = "URBAN_MICROCELL"
**.ue1[27].lteNic.channelModel.scenario = "URBAN_MICROCELL"
**.ue1[28].lteNic.channelModel.scenario = "URBAN_MICROCELL"
**.ue1[29].lteNic.channelModel.scenario = "URBAN_MICROCELL"
**.ue2[0].lteNic.channelModel.scenario = "URBAN_MACROCELL"
**.ue2[1].lteNic.channelModel.scenario = "URBAN_MACROCELL"
**.ue2[2].lteNic.channelModel.scenario = "URBAN_MACROCELL"
**.ue2[3].lteNic.channelModel.scenario = "URBAN_MACROCELL"
**.ue2[4].lteNic.channelModel.scenario = "URBAN_MACROCELL"
**.ue2[5].lteNic.channelModel.scenario = "URBAN_MACROCELL"
**.ue2[6].lteNic.channelModel.scenario = "URBAN_MACROCELL"
**.ue2[7].lteNic.channelModel.scenario = "URBAN_MACROCELL"
**.ue2[8].lteNic.channelModel.scenario = "URBAN_MICROCELL"
**.ue2[9].lteNic.channelModel.scenario = "URBAN_MICROCELL"
**.ue2[10].lteNic.channelModel.scenario = "URBAN_MICROCELL"
**.ue2[11].lteNic.channelModel.scenario = "URBAN_MICROCELL"
**.ue2[12].lteNic.channelModel.scenario = "URBAN_MICROCELL"
**.ue2[13].lteNic.channelModel.scenario = "URBAN_MICROCELL"
**.ue2[14].lteNic.channelModel.scenario = "URBAN_MICROCELL"
**.ue2[15].lteNic.channelModel.scenario = "URBAN_MICROCELL"
**.ue2[16].lteNic.channelModel.scenario = "URBAN_MICROCELL"
**.ue2[17].lteNic.channelModel.scenario = "URBAN_MICROCELL"
**.ue2[18].lteNic.channelModel.scenario = "URBAN_MICROCELL"
**.ue2[19].lteNic.channelModel.scenario = "URBAN_MICROCELL"
**.ue2[20].lteNic.channelModel.scenario = "URBAN_MICROCELL"
**.ue2[21].lteNic.channelModel.scenario = "URBAN_MICROCELL"
**.ue2[22].lteNic.channelModel.scenario = "URBAN_MICROCELL"
**.ue2[23].lteNic.channelModel.scenario = "URBAN_MICROCELL"
**.ue2[24].lteNic.channelModel.scenario = "URBAN_MICROCELL"
**.ue2[25].lteNic.channelModel.scenario = "URBAN_MICROCELL"
**.ue2[26].lteNic.channelModel.scenario = "URBAN_MICROCELL"
**.ue2[27].lteNic.channelModel.scenario = "URBAN_MICROCELL"
**.ue2[28].lteNic.channelModel.scenario = "URBAN_MICROCELL"
**.ue2[29].lteNic.channelModel.scenario = "URBAN_MICROCELL"
**.ue3[0].lteNic.channelModel.scenario = "URBAN_MACROCELL"
**.ue3[1].lteNic.channelModel.scenario = "URBAN_MACROCELL"
**.ue3[2].lteNic.channelModel.scenario = "URBAN_MACROCELL"
**.ue3[3].lteNic.channelModel.scenario = "URBAN_MACROCELL"
**.ue3[4].lteNic.channelModel.scenario = "URBAN_MACROCELL"
**.ue3[5].lteNic.channelModel.scenario = "URBAN_MACROCELL"
**.ue3[6].lteNic.channelModel.scenario = "URBAN_MACROCELL"
**.ue3[7].lteNic.channelModel.scenario = "URBAN_MACROCELL"
**.ue3[8].lteNic.channelModel.scenario = "URBAN_MACROCELL"
**.ue3[9].lteNic.channelModel.scenario = "URBAN_MACROCELL"
**.ue3[10].lteNic.channelModel.scenario = "URBAN_MACROCELL"
**.ue3[11].lteNic.channelModel.scenario = "URBAN_MACROCELL"
**.ue3[12].lteNic.channelModel.scenario = "URBAN_MACROCELL"
**.ue3[13].lteNic.channelModel.scenario = "URBAN_MICROCELL"
**.ue3[14].lteNic.channelModel.scenario = "URBAN_MICROCELL"
**.ue3[15].lteNic.channelModel.scenario = "URBAN_MICROCELL"
**.ue3[16].lteNic.channelModel.scenario = "URBAN_MICROCELL"
**.ue3[17].lteNic.channelModel.scenario = "URBAN_MICROCELL"
**.ue3[18].lteNic.channelModel.scenario = "URBAN_MICROCELL"
**.ue3[19].lteNic.channelModel.scenario = "URBAN_MICROCELL"
**.ue3[20].lteNic.channelModel.scenario = "URBAN_MICROCELL"
**.ue3[21].lteNic.channelModel.scenario = "URBAN_MICROCELL"
**.ue3[22].lteNic.channelModel.scenario = "URBAN_MICROCELL"
**.ue3[23].lteNic.channelModel.scenario = "URBAN_MICROCELL"
**.ue3[24].lteNic.channelModel.scenario = "URBAN_MICROCELL"
**.ue3[25].lteNic.channelModel.scenario = "URBAN_MICROCELL"
**.ue3[26].lteNic.channelModel.scenario = "URBAN_MICROCELL"
**.ue3[27].lteNic.channelModel.scenario = "URBAN_MICROCELL"
**.ue3[28].lteNic.channelModel.scenario = "URBAN_MICROCELL"
**.ue3[29].lteNic.channelModel.scenario = "URBAN_MICROCELL"
**.ue4[0].lteNic.channelModel.scenario = "URBAN_MACROCELL"
**.ue4[1].lteNic.channelModel.scenario = "URBAN_MACROCELL"
**.ue4[2].lteNic.channelModel.scenario = "URBAN_MACROCELL"
**.ue4[3].lteNic.channelModel.scenario = "URBAN_MACROCELL"
**.ue4[4].lteNic.channelModel.scenario = "URBAN_MACROCELL"
**.ue4[5].lteNic.channelModel.scenario = "URBAN_MACROCELL"
**.ue4[6].lteNic.channelModel.scenario = "URBAN_MACROCELL"
**.ue4[7].lteNic.channelModel.scenario = "URBAN_MACROCELL"
**.ue4[8].lteNic.channelModel.scenario = "URBAN_MACROCELL"
**.ue4[9].lteNic.channelModel.scenario = "URBAN_MACROCELL"
**.ue4[10].lteNic.channelModel.scenario = "URBAN_MACROCELL"
**.ue4[11].lteNic.channelModel.scenario = "URBAN_MICROCELL"
**.ue4[12].lteNic.channelModel.scenario = "URBAN_MICROCELL"
**.ue4[13].lteNic.channelModel.scenario = "URBAN_MICROCELL"
**.ue4[14].lteNic.channelModel.scenario = "URBAN_MICROCELL"
**.ue4[15].lteNic.channelModel.scenario = "URBAN_MICROCELL"
**.ue4[16].lteNic.channelModel.scenario = "URBAN_MICROCELL"
**.ue4[17].lteNic.channelModel.scenario = "URBAN_MICROCELL"
**.ue4[18].lteNic.channelModel.scenario = "URBAN_MICROCELL"
**.ue4[19].lteNic.channelModel.scenario = "URBAN_MICROCELL"
**.ue4[20].lteNic.channelModel.scenario = "URBAN_MICROCELL"
**.ue4[21].lteNic.channelModel.scenario = "URBAN_MICROCELL"
**.ue4[22].lteNic.channelModel.scenario = "URBAN_MICROCELL"
**.ue4[23].lteNic.channelModel.scenario = "URBAN_MICROCELL"
**.ue4[24].lteNic.channelModel.scenario = "URBAN_MICROCELL"
**.ue4[25].lteNic.channelModel.scenario = "URBAN_MICROCELL"
**.ue4[26].lteNic.channelModel.scenario = "URBAN_MICROCELL"
**.ue4[27].lteNic.channelModel.scenario = "URBAN_MICROCELL"
**.ue4[28].lteNic.channelModel.scenario = "URBAN_MICROCELL"
**.ue4[29].lteNic.channelModel.scenario = "URBAN_MICROCELL"
**.ue5[0].lteNic.channelModel.scenario = "URBAN_MACROCELL"
**.ue5[1].lteNic.channelModel.scenario = "URBAN_MACROCELL"
**.ue5[2].lteNic.channelModel.scenario = "URBAN_MACROCELL"
**.ue5[3].lteNic.channelModel.scenario = "URBAN_MACROCELL"
**.ue5[4].lteNic.channelModel.scenario = "URBAN_MACROCELL"
**.ue5[5].lteNic.channelModel.scenario = "URBAN_MACROCELL"
**.ue5[6].lteNic.channelModel.scenario = "URBAN_MACROCELL"
**.ue5[7].lteNic.channelModel.scenario = "URBAN_MACROCELL"
**.ue5[8].lteNic.channelModel.scenario = "URBAN_MICROCELL"
**.ue5[9].lteNic.channelModel.scenario = "URBAN_MICROCELL"
**.ue5[10].lteNic.channelModel.scenario = "URBAN_MICROCELL"
**.ue5[11].lteNic.channelModel.scenario = "URBAN_MICROCELL"
**.ue5[12].lteNic.channelModel.scenario = "URBAN_MICROCELL"
**.ue5[13].lteNic.channelModel.scenario = "URBAN_MICROCELL"
**.ue5[14].lteNic.channelModel.scenario = "URBAN_MICROCELL"
**.ue5[15].lteNic.channelModel.scenario = "URBAN_MICROCELL"
**.ue5[16].lteNic.channelModel.scenario = "URBAN_MICROCELL"
**.ue5[17].lteNic.channelModel.scenario = "URBAN_MICROCELL"
**.ue5[18].lteNic.channelModel.scenario = "URBAN_MICROCELL"
**.ue5[19].lteNic.channelModel.scenario = "URBAN_MICROCELL"
**.ue5[20].lteNic.channelModel.scenario = "URBAN_MICROCELL"
**.ue5[21].lteNic.channelModel.scenario = "URBAN_MICROCELL"
**.ue5[22].lteNic.channelModel.scenario = "URBAN_MICROCELL"
**.ue5[23].lteNic.channelModel.scenario = "URBAN_MICROCELL"
**.ue5[24].lteNic.channelModel.scenario = "URBAN_MICROCELL"
**.ue5[25].lteNic.channelModel.scenario = "URBAN_MICROCELL"
**.ue5[26].lteNic.channelModel.scenario = "URBAN_MICROCELL"
**.ue5[27].lteNic.channelModel.scenario = "URBAN_MICROCELL"
**.ue5[28].lteNic.channelModel.scenario = "URBAN_MICROCELL"
**.ue5[29].lteNic.channelModel.scenario = "URBAN_MICROCELL"
**.ue6[0].lteNic.channelModel.scenario = "URBAN_MACROCELL"
**.ue6[1].lteNic.channelModel.scenario = "URBAN_MACROCELL"
**.ue6[2].lteNic.channelModel.scenario = "URBAN_MACROCELL"
**.ue6[3].lteNic.channelModel.scenario = "URBAN_MACROCELL"
**.ue6[4].lteNic.channelModel.scenario = "URBAN_MACROCELL"
**.ue6[5].lteNic.channelModel.scenario = "URBAN_MACROCELL"
**.ue6[6].lteNic.channelModel.scenario = "URBAN_MACROCELL"
**.ue6[7].lteNic.channelModel.scenario = "URBAN_MACROCELL"
**.ue6[8].lteNic.channelModel.scenario = "URBAN_MACROCELL"
**.ue6[9].lteNic.channelModel.scenario = "URBAN_MACROCELL"
**.ue6[10].lteNic.channelModel.scenario = "URBAN_MACROCELL"
**.ue6[11].lteNic.channelModel.scenario = "URBAN_MACROCELL"
**.ue6[12].lteNic.channelModel.scenario = "URBAN_MACROCELL"
**.ue6[13].lteNic.channelModel.scenario = "URBAN_MICROCELL"
**.ue6[14].lteNic.channelModel.scenario = "URBAN_MICROCELL"
**.ue6[15].lteNic.channelModel.scenario = "URBAN_MICROCELL"
**.ue6[16].lteNic.channelModel.scenario = "URBAN_MICROCELL"
**.ue6[17].lteNic.channelModel.scenario = "URBAN_MICROCELL"
**.ue6[18].lteNic.channelModel.scenario = "URBAN_MICROCELL"
**.ue6[19].lteNic.channelModel.scenario = "URBAN_MICROCELL"
**.ue6[20].lteNic.channelModel.scenario = "URBAN_MICROCELL"
**.ue6[21].lteNic.channelModel.scenario = "URBAN_MICROCELL"
**.ue6[22].lteNic.channelModel.scenario = "URBAN_MICROCELL"
**.ue6[23].lteNic.channelModel.scenario = "URBAN_MICROCELL"
**.ue6[24].lteNic.channelModel.scenario = "URBAN_MICROCELL"
**.ue6[25].lteNic.channelModel.scenario = "URBAN_MICROCELL"
**.ue6[26].lteNic.channelModel.scenario = "URBAN_MICROCELL"
**.ue6[27].lteNic.channelModel.scenario = "URBAN_MICROCELL"
**.ue6[28].lteNic.channelModel.scenario = "URBAN_MICROCELL"
**.ue6[29].lteNic.channelModel.scenario = "URBAN_MICROCELL"

############### Mobility ###############

# eNodeB
*.eNB.mobility.initialX = 500m
*.eNB.mobility.initialY = 500m
*.eNB.mobility.initialZ = 0m
*.eNB.mobility.initFromDisplayString = false
*.eNB.mobility.constraintAreaMaxX = inf m
*.eNB.mobility.constraintAreaMaxY = inf m
*.eNB.mobility.constraintAreaMaxZ = inf m
*.eNB.mobility.constraintAreaMinX = -inf m
*.eNB.mobility.constraintAreaMinY = -inf m
*.eNB.mobility.constraintAreaMinZ = -inf m

# UEs

*.ue[*].mobilityType = "StationaryMobility"
*.ue[0].mobility.initialX = 469.06595025706173m
*.ue[0].mobility.initialY = 820.3356365480101m
*.ue[0].mobility.initialZ = 0.0m
*.ue[1].mobility.initialX = 293.530793246511m
*.ue[1].mobility.initialY = 810.2160826362119m
*.ue[1].mobility.initialZ = 0.0m
*.ue[2].mobility.initialX = 350.21441324400723m
*.ue[2].mobility.initialY = 377.8164832547805m
*.ue[2].mobility.initialZ = 0.0m
*.ue[3].mobility.initialX = 330.2021532150791m
*.ue[3].mobility.initialY = 205.9400578242844m
*.ue[3].mobility.initialZ = 0.0m
*.ue[4].mobility.initialX = 354.7551309528297m
*.ue[4].mobility.initialY = 241.71270272204328m
*.ue[4].mobility.initialZ = 0.0m
*.ue[5].mobility.initialX = 239.34794250315213m
*.ue[5].mobility.initialY = 189.71575074691077m
*.ue[5].mobility.initialZ = 0.0m
*.ue[6].mobility.initialX = 214.32574161938612m
*.ue[6].mobility.initialY = 195.82339653406126m
*.ue[6].mobility.initialZ = 0.0m
*.ue[7].mobility.initialX = 502.9378011556153m
*.ue[7].mobility.initialY = 216.664214400481m
*.ue[7].mobility.initialZ = 0.0m
*.ue[8].mobility.initialX = 285.47582945404076m
*.ue[8].mobility.initialY = 537.4255435942031m
*.ue[8].mobility.initialZ = 0.0m
*.ue[9].mobility.initialX = 357.4982503703907m
*.ue[9].mobility.initialY = 700.4295829825309m
*.ue[9].mobility.initialZ = 0.0m
*.ue[10].mobility.initialX = 704.053834864235m
*.ue[10].mobility.initialY = 686.8027360462274m
*.ue[10].mobility.initialZ = 0.0m
*.ue[11].mobility.initialX = 767.0611038459083m
*.ue[11].mobility.initialY = 706.502981643468m
*.ue[11].mobility.initialZ = 0.0m
*.ue[12].mobility.initialX = 773.1187365995919m
*.ue[12].mobility.initialY = 678.1192908335709m
*.ue[12].mobility.initialZ = 0.0m
*.ue[13].mobility.initialX = 686.3459677407317m
*.ue[13].mobility.initialY = 727.5953868195163m
*.ue[13].mobility.initialZ = 0.0m
*.ue[14].mobility.initialX = 650.2525741538291m
*.ue[14].mobility.initialY = 664.9278584460166m
*.ue[14].mobility.initialZ = 0.0m
*.ue[15].mobility.initialX = 711.7790762165381m
*.ue[15].mobility.initialY = 657.3552910031539m
*.ue[15].mobility.initialZ = 0.0m
*.ue[16].mobility.initialX = 765.7418427752316m
*.ue[16].mobility.initialY = 637.1081060826058m
*.ue[16].mobility.initialZ = 0.0m
*.ue[17].mobility.initialX = 696.4561580797512m
*.ue[17].mobility.initialY = 694.5149259914808m
*.ue[17].mobility.initialZ = 0.0m
*.ue[18].mobility.initialX = 693.1958834000159m
*.ue[18].mobility.initialY = 674.9265633590305m
*.ue[18].mobility.initialZ = 0.0m
*.ue[19].mobility.initialX = 726.6130699863504m
*.ue[19].mobility.initialY = 707.4856078347966m
*.ue[19].mobility.initialZ = 0.0m
*.ue[20].mobility.initialX = 766.7579630683904m
*.ue[20].mobility.initialY = 674.309688678418m
*.ue[20].mobility.initialZ = 0.0m
*.ue[21].mobility.initialX = 678.619238052525m
*.ue[21].mobility.initialY = 663.1506753918073m
*.ue[21].mobility.initialZ = 0.0m
*.ue[22].mobility.initialX = 732.8473955467678m
*.ue[22].mobility.initialY = 713.5785551948568m
*.ue[22].mobility.initialZ = 0.0m
*.ue[23].mobility.initialX = 720.4313468649668m
*.ue[23].mobility.initialY = 693.915303930252m
*.ue[23].mobility.initialZ = 0.0m
*.ue[24].mobility.initialX = 705.7468091099873m
*.ue[24].mobility.initialY = 710.9817533487827m
*.ue[24].mobility.initialZ = 0.0m
*.ue[25].mobility.initialX = 746.670304809541m
*.ue[25].mobility.initialY = 698.466934178811m
*.ue[25].mobility.initialZ = 0.0m
*.ue[26].mobility.initialX = 746.838339943608m
*.ue[26].mobility.initialY = 691.9230854556109m
*.ue[26].mobility.initialZ = 0.0m
*.ue[27].mobility.initialX = 705.1378893177866m
*.ue[27].mobility.initialY = 668.3972081859557m