[General]
sim-time-limit = 10s

############### Statistics ###############
output-scalar-file = ${resultdir}/${configname}/${repetition}.sca
output-vector-file = ${resultdir}/${configname}/${repetition}.vec
**.vector-recording = False
seed-set = ${repetition}
**.vector-recording = false

############### Transmission Power ###############
**.ueTxPower = 24
**eNodeBTxPower = 46

############### Resource Blocks ###############
**.numRbDl = 6
**.numRbUl = 6
**.binder.numBands = 6 # this value should be kept equal to the number of RBs

[Config Teste]
network = networks.SimpleNet
sim-time-limit = 10s
repeat = 10
seed-set = ${repetition}
num-rngs = 2
seed-1-mt = 123

output-scalar-file = ${resultdir}/${configname}/${repetition}.sca
output-vector-file = ${resultdir}/${configname}/${repetition}.vec
**.vector-recording = False


############### UEs ###############

# Conecting UEs to eNodeB
**.ue[*].macCellId = 1
**.ue[*].masterId = 1
