[General]
sim-time-limit = 10s

############### Statistics ###############
output-scalar-file = ${resultdir}/${configname}/${repetition}.sca
output-vector-file = ${resultdir}/${configname}/${repetition}.vec
**.vector-recording = False
seed-set = ${repetition}
**.vector-recording = false

############### Transmission Power ###############
**.ueTxPower = 24
**eNodeBTxPower = 46

############### Resource Blocks ###############
**.numRbDl = 6
**.numRbUl = 6
**.binder.numBands = 6 # this value should be kept equal to the number of RBs

[Config Teste]
network = networks.SimpleNet
sim-time-limit = 10s
repeat = 10
seed-set = ${repetition}
num-rngs = 2
seed-1-mt = 123

output-scalar-file = ${resultdir}/${configname}/${repetition}.sca
output-vector-file = ${resultdir}/${configname}/${repetition}.vec
**.vector-recording = False

############### UEs ###############

# Conecting UEs to eNodeB
**.ue[*].macCellId = 1
**.ue[*].masterId = 1

# Scheduler
**.schedulingDisciplineUl = ${sched= "MAXCI", "DRR", "PF", "ALLOCATOR_BESTFIT"}
**.schedulingDisciplineDl = ${sched}

############### Mobility ###############

# eNodeB
*.eNB.mobility.initialX = 500m
*.eNB.mobility.initialY = 500m
*.eNB.mobility.initialZ = 0m
*.eNB.mobility.initFromDisplayString = False
*.eNB.mobility.constraintAreaMaxX = inf m
*.eNB.mobility.constraintAreaMaxY = inf m
*.eNB.mobility.constraintAreaMaxZ = inf m
*.eNB.mobility.constraintAreaMinX = -inf m
*.eNB.mobility.constraintAreaMinY = -inf m
*.eNB.mobility.constraintAreaMinZ = -inf m

# UEs
*.ue[*].mobilityType = "StationaryMobility"
*.ue[0].mobility.initialX = 100m
*.ue[0].mobility.initialY = 200m
*.ue[0].mobility.initialZ = 0m
*.ue[1].mobility.initialX = 100m
*.ue[1].mobility.initialY = 200m
*.ue[1].mobility.initialZ = 0m
*.ue[2].mobility.initialX = 100m
*.ue[2].mobility.initialY = 200m
*.ue[2].mobility.initialZ = 0m
*.ue[3].mobility.initialX = 100m
*.ue[3].mobility.initialY = 200m
*.ue[3].mobility.initialZ = 0m
*.ue[4].mobility.initialX = 100m
*.ue[4].mobility.initialY = 200m
*.ue[4].mobility.initialZ = 0m
*.ue[5].mobility.initialX = 100m
*.ue[5].mobility.initialY = 200m
*.ue[5].mobility.initialZ = 0m
*.ue[6].mobility.initialX = 100m
*.ue[6].mobility.initialY = 200m
*.ue[6].mobility.initialZ = 0m
*.ue[7].mobility.initialX = 100m
*.ue[7].mobility.initialY = 200m
*.ue[7].mobility.initialZ = 0m
*.ue[8].mobility.initialX = 100m
*.ue[8].mobility.initialY = 200m
*.ue[8].mobility.initialZ = 0m
*.ue[9].mobility.initialX = 100m
*.ue[9].mobility.initialY = 200m
*.ue[9].mobility.initialZ = 0m
*.ue[10].mobility.initialX = 300m
*.ue[10].mobility.initialY = 400m
*.ue[10].mobility.initialZ = 0m
*.ue[11].mobility.initialX = 300m
*.ue[11].mobility.initialY = 400m
*.ue[11].mobility.initialZ = 0m
*.ue[12].mobility.initialX = 300m
*.ue[12].mobility.initialY = 400m
*.ue[12].mobility.initialZ = 0m
*.ue[13].mobility.initialX = 300m
*.ue[13].mobility.initialY = 400m
*.ue[13].mobility.initialZ = 0m
*.ue[14].mobility.initialX = 300m
*.ue[14].mobility.initialY = 400m
*.ue[14].mobility.initialZ = 0m
*.ue[15].mobility.initialX = 300m
*.ue[15].mobility.initialY = 400m
*.ue[15].mobility.initialZ = 0m
*.ue[16].mobility.initialX = 300m
*.ue[16].mobility.initialY = 400m
*.ue[16].mobility.initialZ = 0m
*.ue[17].mobility.initialX = 300m
*.ue[17].mobility.initialY = 400m
*.ue[17].mobility.initialZ = 0m
*.ue[18].mobility.initialX = 300m
*.ue[18].mobility.initialY = 400m
*.ue[18].mobility.initialZ = 0m
*.ue[19].mobility.initialX = 300m
*.ue[19].mobility.initialY = 400m
*.ue[19].mobility.initialZ = 0m
*.ue[20].mobility.initialX = 300m
*.ue[20].mobility.initialY = 400m
*.ue[20].mobility.initialZ = 0m
*.ue[21].mobility.initialX = 300m
*.ue[21].mobility.initialY = 400m
*.ue[21].mobility.initialZ = 0m
*.ue[22].mobility.initialX = 300m
*.ue[22].mobility.initialY = 400m
*.ue[22].mobility.initialZ = 0m
*.ue[23].mobility.initialX = 300m
*.ue[23].mobility.initialY = 400m
*.ue[23].mobility.initialZ = 0m
*.ue[24].mobility.initialX = 300m
*.ue[24].mobility.initialY = 400m
*.ue[24].mobility.initialZ = 0m
*.ue[25].mobility.initialX = 300m
*.ue[25].mobility.initialY = 400m
*.ue[25].mobility.initialZ = 0m
*.ue[26].mobility.initialX = 300m
*.ue[26].mobility.initialY = 400m
*.ue[26].mobility.initialZ = 0m
*.ue[27].mobility.initialX = 300m
*.ue[27].mobility.initialY = 400m
*.ue[27].mobility.initialZ = 0m
*.ue[28].mobility.initialX = 300m
*.ue[28].mobility.initialY = 400m
*.ue[28].mobility.initialZ = 0m
*.ue[29].mobility.initialX = 300m
*.ue[29].mobility.initialY = 400m
*.ue[29].mobility.initialZ = 0m
*.ue[*].mobility.initFromDisplayString = False
*.ue[*].mobility.constraintAreaMaxX = inf m
*.ue[*].mobility.constraintAreaMaxY = inf m
*.ue[*].mobility.constraintAreaMaxZ = inf m
*.ue[*].mobility.constraintAreaMinX = -inf m
*.ue[*].mobility.constraintAreaMinY = -inf m
*.ue[*].mobility.constraintAreaMinZ = -inf m
