#Function: ilp_sliced_ini
#Parameters:
#   filename: ../Network_CCOpMv/_5G/simulations/disaster_percentage_0/micro_power_30/chosen_seed_1/ilp_single_sliced_10.ini
#   seed: 1
#   size_y: 4000
#   size_x: 4000
#   size_sector: 400
#   n_macros: 1
#   min_sinr: 10
#   repetitions: 1
#   multi_carriers: False
#   slice_time: 1
#   is_micro: True
#   p_size: 1428
#   app: video
#   target_f: 10
#   extra_config_name: video
#   result_dir: Solutions/disaster_percentage_0/micro_power_30/chosen_seed_1
#   mode: single
#   network_name: ILPSingleNet10
#   net_dir: _5G/networks/disaster_percentage_0/micro_power_30/chosen_seed_1
#   cmdenv_config: True
#   micro_power: 30
#   xml_filename: ilp_move_users-1.sna
#   num_bands: [100]
#Extra = Using 1 macros with 60 ues each. Slicing 10s in 10 different simulations. Using microcells.
[General]
sim-time-limit = 10s

############### Statistics ###############
output-scalar-file = ${resultdir}/${configname}/${repetition}.sca
output-vector-file = ${resultdir}/${configname}/${repetition}.vec
**.vector-recording = false
eventlog-file = ${resultdir}/${configname}/${repetition}.elog
seed-set = ${repetition}

[Config ilp_single_sliced_10_video]
network = _5G.networks.disaster_percentage_0.micro_power_30.chosen_seed_1.ILPSingleNet10
sim-time-limit = 1s
repeat = 1
seed-set = ${repetition}
num-rngs = 2
seed-1-mt = 1

############### Outputs ###############
**.eNB*.cellularNic.channelModel[*].idRcvdSinr:vector.vector-recording = true
**.eNB*.cellularNic.channelModel[*].rcvdSinr:vector.vector-recording = true
**.app[*].throughput:vector.vector-recording = true
**.app[*].endToEndDelay:vector.vector-recording = true
output-scalar-file = ${resultdir}/ilp_single_sliced_10_video/10-${RBs}-${repetition}-${Slice}.sca
output-vector-file = ${resultdir}/ilp_single_sliced_10_video/10-${RBs}-${repetition}-${Slice}.vec
**.vector-recording = false
eventlog-file = ${resultdir}/ilp_single_sliced_10_video/10-${RBs}-${repetition}-${Slice}.elog

############### Cmdenv ###############
cmdenv-performance-display = false
cmdenv-redirect-output = true
cmdenv-output-file = ${resultdir}/ilp_single_sliced_10_video-cmdout/10-${RBs}-${repetition}-${Slice}.out

############### Snapshots ###############
snapshot-file = ../../../Functions/ilp_single_sliced_10_video-RBs_${RBs}-Slice_${Slice}-10-${repetition}.sna
**.snapshotter.snapshot = false
**.snapshotter.delay = 1.0

############### Transmission Power ###############
**.ueTxPower = 24
**.eNodeBTxPower = 46
**.microTxPower = 30
**.cellularNic.phy.txDirection = "OMNI"

############### Channel Control ###############
**.numComponentCarriers = 1
*.carrierAggregation.componentCarrier[0].carrierFrequency = 0.7GHz

############### Channel Model ###############
**.cellularNic.LteChannelModelType = "MoreInfoChannelModel"
**.cellularNic.channelModel[*].building_height = 20
**.cellularNic.channelModel[*].nodeb_height = 18
**.cellularNic.channelModel[*].ue_height = 1.5
**.cellularNic.channelModel[*].street_wide = 20
**.cellularNic.channelModel[*].fading_type = "JAKES"
**.cellularNic.channelModel[*].extCell_interference = false
**.cellularNic.channelModel[*].antennGainEnB = 18
**.cellularNic.channelModel[*].antennGainMicro = 5
**.cellularNic.channelModel[*].antennaGainUe = -1
**.cellularNic.channelModel[*].bs_noise_figure = 9
**.cellularNic.channelModel[*].cable_loss = 2
**.cellularNic.channelModel[*].componentCarrierIndex = 0
**.cellularNic.channelModel[*].correlation_distance = 50
**.cellularNic.channelModel[*].d2d_interference = true
**.cellularNic.channelModel[*].delay_rms = 363e-9
**.cellularNic.channelModel[*].downlink_interference = false
**.cellularNic.channelModel[*].dynamic_los = false
**.cellularNic.channelModel[*].enable_extCell_los = true
**.cellularNic.channelModel[*].fading = true
**.cellularNic.channelModel[*].fading_paths = 6
**.cellularNic.channelModel[*].fixed_los = false
**.cellularNic.channelModel[*].harqReduction = 0.2
**.cellularNic.channelModel[*].inside_building = false
**.cellularNic.channelModel[*].lambdaMaxTh = 0.2
**.cellularNic.channelModel[*].lambdaMinTh = 0.02
**.cellularNic.channelModel[*].lambdaRatioTh = 20
**.cellularNic.channelModel[*].rsrqScale = 1.0
**.cellularNic.channelModel[*].rsrqShift = 22
**.cellularNic.channelModel[*].shadowing = true
**.cellularNic.channelModel[*].targetBler = 0.01
**.cellularNic.channelModel[*].thermalNoise = -104.5
**.cellularNic.channelModel[*].tolerateMaxDistViolation = true
**.cellularNic.channelModel[*].ue_noise_figure = 7
**.cellularNic.channelModel[*].uplink_interference = false
**.cellularNic.channelModel[*].useRsrqFromLog = false
**.cellularNic.channelModel[*].useTorus = false
**.cellularNic.channelModel[*].num_slice = ${Slice= 0, 1, 2, 3, 4, 5, 6, 7, 8, 9}
**.cellularNic.channelModel[*].num_enbs = ${NumEnbs= 1, 5, 5, 5, 5, 5, 5, 5, 5, 5 ! Slice}

############### Resource Blocks ###############
**.numBands = ${RBs= 100}

############### eNBs ###############
**.eNB0.cellInfo.microCell = true
**.eNB1.cellInfo.microCell = true
**.eNB2.cellInfo.microCell = true
**.eNB3.cellInfo.microCell = true
**.eNB4.cellInfo.microCell = true

############### UEs ###############
**.numUe = 60

# Conecting UEs to eNodeB
**.ue[0].macCellId = ${4, 3, 3, 4, 3, 2, 1, 2, 1, 2 ! Slice}
**.ue[0].masterId = ${4, 3, 3, 4, 3, 2, 1, 2, 1, 2 ! Slice}
**.ue[1].macCellId = ${4, 2, 3, 5, 2, 5, 1, 4, 4, 1 ! Slice}
**.ue[1].masterId = ${4, 2, 3, 5, 2, 5, 1, 4, 4, 1 ! Slice}
**.ue[2].macCellId = ${4, 3, 1, 2, 4, 5, 3, 1, 2, 2 ! Slice}
**.ue[2].masterId = ${4, 3, 1, 2, 4, 5, 3, 1, 2, 2 ! Slice}
**.ue[3].macCellId = ${4, 3, 1, 2, 3, 5, 4, 5, 3, 2 ! Slice}
**.ue[3].masterId = ${4, 3, 1, 2, 3, 5, 4, 5, 3, 2 ! Slice}
**.ue[4].macCellId = ${4, 1, 3, 5, 2, 2, 5, 5, 2, 4 ! Slice}
**.ue[4].masterId = ${4, 1, 3, 5, 2, 2, 5, 5, 2, 4 ! Slice}
**.ue[5].macCellId = ${4, 5, 4, 5, 4, 3, 4, 5, 3, 2 ! Slice}
**.ue[5].masterId = ${4, 5, 4, 5, 4, 3, 4, 5, 3, 2 ! Slice}
**.ue[6].macCellId = ${4, 5, 3, 2, 1, 4, 5, 4, 5, 5 ! Slice}
**.ue[6].masterId = ${4, 5, 3, 2, 1, 4, 5, 4, 5, 5 ! Slice}
**.ue[7].macCellId = ${4, 4, 2, 4, 4, 2, 4, 2, 4, 2 ! Slice}
**.ue[7].masterId = ${4, 4, 2, 4, 4, 2, 4, 2, 4, 2 ! Slice}
**.ue[8].macCellId = ${4, 2, 4, 2, 3, 3, 1, 3, 5, 2 ! Slice}
**.ue[8].masterId = ${4, 2, 4, 2, 3, 3, 1, 3, 5, 2 ! Slice}
**.ue[9].macCellId = ${4, 3, 2, 2, 1, 1, 2, 5, 5, 4 ! Slice}
**.ue[9].masterId = ${4, 3, 2, 2, 1, 1, 2, 5, 5, 4 ! Slice}
**.ue[10].macCellId = ${4, 4, 5, 3, 1, 2, 4, 5, 2, 2 ! Slice}
**.ue[10].masterId = ${4, 4, 5, 3, 1, 2, 4, 5, 2, 2 ! Slice}
**.ue[11].macCellId = ${4, 2, 2, 4, 4, 2, 2, 4, 4, 2 ! Slice}
**.ue[11].masterId = ${4, 2, 2, 4, 4, 2, 2, 4, 4, 2 ! Slice}
**.ue[12].macCellId = ${4, 2, 4, 4, 5, 2, 5, 3, 1, 5 ! Slice}
**.ue[12].masterId = ${4, 2, 4, 4, 5, 2, 5, 3, 1, 5 ! Slice}
**.ue[13].macCellId = ${4, 4, 2, 5, 3, 3, 5, 2, 4, 1 ! Slice}
**.ue[13].masterId = ${4, 4, 2, 5, 3, 3, 5, 2, 4, 1 ! Slice}
**.ue[14].macCellId = ${4, 4, 2, 2, 3, 3, 3, 5, 4, 2 ! Slice}
**.ue[14].masterId = ${4, 4, 2, 2, 3, 3, 3, 5, 4, 2 ! Slice}
**.ue[15].macCellId = ${4, 5, 5, 4, 2, 1, 2, 5, 5, 5 ! Slice}
**.ue[15].masterId = ${4, 5, 5, 4, 2, 1, 2, 5, 5, 5 ! Slice}
**.ue[16].macCellId = ${4, 4, 4, 2, 4, 4, 2, 5, 3, 3 ! Slice}
**.ue[16].masterId = ${4, 4, 4, 2, 4, 4, 2, 5, 3, 3 ! Slice}
**.ue[17].macCellId = ${4, 5, 3, 1, 2, 4, 5, 3, 2, 2 ! Slice}
**.ue[17].masterId = ${4, 5, 3, 1, 2, 4, 5, 3, 2, 2 ! Slice}
**.ue[18].macCellId = ${4, 2, 4, 4, 2, 4, 4, 2, 4, 4 ! Slice}
**.ue[18].masterId = ${4, 2, 4, 4, 2, 4, 4, 2, 4, 4 ! Slice}
**.ue[19].macCellId = ${4, 2, 4, 4, 4, 2, 4, 2, 4, 4 ! Slice}
**.ue[19].masterId = ${4, 2, 4, 4, 4, 2, 4, 2, 4, 4 ! Slice}
**.ue[20].macCellId = ${4, 2, 2, 3, 5, 4, 5, 3, 1, 4 ! Slice}
**.ue[20].masterId = ${4, 2, 2, 3, 5, 4, 5, 3, 1, 4 ! Slice}
**.ue[21].macCellId = ${4, 3, 1, 2, 4, 3, 2, 2, 3, 5 ! Slice}
**.ue[21].masterId = ${4, 3, 1, 2, 4, 3, 2, 2, 3, 5 ! Slice}
**.ue[22].macCellId = ${4, 3, 5, 2, 2, 4, 3, 3, 4, 5 ! Slice}
**.ue[22].masterId = ${4, 3, 5, 2, 2, 4, 3, 3, 4, 5 ! Slice}
**.ue[23].macCellId = ${4, 5, 5, 4, 3, 2, 1, 2, 1, 1 ! Slice}
**.ue[23].masterId = ${4, 5, 5, 4, 3, 2, 1, 2, 1, 1 ! Slice}
**.ue[24].macCellId = ${4, 2, 3, 3, 1, 4, 5, 3, 5, 2 ! Slice}
**.ue[24].masterId = ${4, 2, 3, 3, 1, 4, 5, 3, 5, 2 ! Slice}
**.ue[25].macCellId = ${4, 2, 4, 4, 2, 5, 3, 3, 3, 3 ! Slice}
**.ue[25].masterId = ${4, 2, 4, 4, 2, 5, 3, 3, 3, 3 ! Slice}
**.ue[26].macCellId = ${4, 4, 3, 3, 1, 2, 4, 2, 1, 3 ! Slice}
**.ue[26].masterId = ${4, 4, 3, 3, 1, 2, 4, 2, 1, 3 ! Slice}
**.ue[27].macCellId = ${4, 3, 4, 3, 3, 2, 2, 5, 5, 4 ! Slice}
**.ue[27].masterId = ${4, 3, 4, 3, 3, 2, 2, 5, 5, 4 ! Slice}
**.ue[28].macCellId = ${4, 5, 3, 2, 2, 1, 2, 3, 4, 5 ! Slice}
**.ue[28].masterId = ${4, 5, 3, 2, 2, 1, 2, 3, 4, 5 ! Slice}
**.ue[29].macCellId = ${4, 4, 2, 4, 2, 4, 4, 4, 2, 5 ! Slice}
**.ue[29].masterId = ${4, 4, 2, 4, 2, 4, 4, 4, 2, 5 ! Slice}
**.ue[30].macCellId = ${4, 5, 5, 2, 1, 1, 4, 5, 5, 4 ! Slice}
**.ue[30].masterId = ${4, 5, 5, 2, 1, 1, 4, 5, 5, 4 ! Slice}
**.ue[31].macCellId = ${4, 5, 5, 4, 1, 3, 4, 2, 1, 3 ! Slice}
**.ue[31].masterId = ${4, 5, 5, 4, 1, 3, 4, 2, 1, 3 ! Slice}
**.ue[32].macCellId = ${4, 4, 2, 3, 3, 3, 3, 5, 5, 2 ! Slice}
**.ue[32].masterId = ${4, 4, 2, 3, 3, 3, 3, 5, 5, 2 ! Slice}
**.ue[33].macCellId = ${4, 3, 2, 5, 3, 2, 3, 5, 5, 1 ! Slice}
**.ue[33].masterId = ${4, 3, 2, 5, 3, 2, 3, 5, 5, 1 ! Slice}
**.ue[34].macCellId = ${4, 2, 2, 5, 3, 1, 3, 5, 2, 4 ! Slice}
**.ue[34].masterId = ${4, 2, 2, 5, 3, 1, 3, 5, 2, 4 ! Slice}
**.ue[35].macCellId = ${4, 3, 1, 4, 2, 3, 3, 1, 4, 4 ! Slice}
**.ue[35].masterId = ${4, 3, 1, 4, 2, 3, 3, 1, 4, 4 ! Slice}
**.ue[36].macCellId = ${4, 2, 2, 4, 2, 4, 4, 2, 4, 2 ! Slice}
**.ue[36].masterId = ${4, 2, 2, 4, 2, 4, 4, 2, 4, 2 ! Slice}
**.ue[37].macCellId = ${4, 5, 5, 4, 3, 4, 3, 2, 2, 1 ! Slice}
**.ue[37].masterId = ${4, 5, 5, 4, 3, 4, 3, 2, 2, 1 ! Slice}
**.ue[38].macCellId = ${4, 5, 1, 2, 3, 5, 4, 3, 1, 2 ! Slice}
**.ue[38].masterId = ${4, 5, 1, 2, 3, 5, 4, 3, 1, 2 ! Slice}
**.ue[39].macCellId = ${4, 5, 1, 5, 4, 1, 5, 4, 2, 5 ! Slice}
**.ue[39].masterId = ${4, 5, 1, 5, 4, 1, 5, 4, 2, 5 ! Slice}
**.ue[40].macCellId = ${4, 4, 1, 3, 5, 4, 4, 5, 1, 3 ! Slice}
**.ue[40].masterId = ${4, 4, 1, 3, 5, 4, 4, 5, 1, 3 ! Slice}
**.ue[41].macCellId = ${4, 2, 1, 4, 4, 3, 3, 4, 3, 1 ! Slice}
**.ue[41].masterId = ${4, 2, 1, 4, 4, 3, 3, 4, 3, 1 ! Slice}
**.ue[42].macCellId = ${4, 4, 2, 3, 5, 2, 2, 5, 3, 1 ! Slice}
**.ue[42].masterId = ${4, 4, 2, 3, 5, 2, 2, 5, 3, 1 ! Slice}
**.ue[43].macCellId = ${4, 5, 3, 4, 5, 5, 4, 3, 2, 2 ! Slice}
**.ue[43].masterId = ${4, 5, 3, 4, 5, 5, 4, 3, 2, 2 ! Slice}
**.ue[44].macCellId = ${4, 3, 4, 5, 1, 2, 1, 3, 5, 4 ! Slice}
**.ue[44].masterId = ${4, 3, 4, 5, 1, 2, 1, 3, 5, 4 ! Slice}
**.ue[45].macCellId = ${4, 5, 1, 1, 4, 4, 4, 1, 4, 4 ! Slice}
**.ue[45].masterId = ${4, 5, 1, 1, 4, 4, 4, 1, 4, 4 ! Slice}
**.ue[46].macCellId = ${4, 2, 5, 3, 3, 5, 2, 4, 2, 3 ! Slice}
**.ue[46].masterId = ${4, 2, 5, 3, 3, 5, 2, 4, 2, 3 ! Slice}
**.ue[47].macCellId = ${4, 2, 4, 1, 3, 3, 1, 5, 4, 2 ! Slice}
**.ue[47].masterId = ${4, 2, 4, 1, 3, 3, 1, 5, 4, 2 ! Slice}
**.ue[48].macCellId = ${4, 2, 2, 4, 2, 4, 4, 2, 4, 4 ! Slice}
**.ue[48].masterId = ${4, 2, 2, 4, 2, 4, 4, 2, 4, 4 ! Slice}
**.ue[49].macCellId = ${4, 2, 4, 4, 5, 5, 2, 5, 5, 1 ! Slice}
**.ue[49].masterId = ${4, 2, 4, 4, 5, 5, 2, 5, 5, 1 ! Slice}
**.ue[50].macCellId = ${4, 5, 3, 4, 4, 3, 2, 5, 2, 2 ! Slice}
**.ue[50].masterId = ${4, 5, 3, 4, 4, 3, 2, 5, 2, 2 ! Slice}
**.ue[51].macCellId = ${4, 5, 4, 3, 2, 1, 2, 3, 5, 5 ! Slice}
**.ue[51].masterId = ${4, 5, 4, 3, 2, 1, 2, 3, 5, 5 ! Slice}
**.ue[52].macCellId = ${4, 3, 2, 5, 3, 4, 2, 1, 2, 2 ! Slice}
**.ue[52].masterId = ${4, 3, 2, 5, 3, 4, 2, 1, 2, 2 ! Slice}
**.ue[53].macCellId = ${4, 5, 3, 3, 2, 1, 5, 4, 5, 5 ! Slice}
**.ue[53].masterId = ${4, 5, 3, 3, 2, 1, 5, 4, 5, 5 ! Slice}
**.ue[54].macCellId = ${4, 5, 1, 2, 4, 3, 1, 2, 5, 1 ! Slice}
**.ue[54].masterId = ${4, 5, 1, 2, 4, 3, 1, 2, 5, 1 ! Slice}
**.ue[55].macCellId = ${4, 4, 5, 2, 2, 5, 5, 2, 1, 3 ! Slice}
**.ue[55].masterId = ${4, 4, 5, 2, 2, 5, 5, 2, 1, 3 ! Slice}
**.ue[56].macCellId = ${4, 4, 2, 4, 4, 2, 2, 4, 4, 4 ! Slice}
**.ue[56].masterId = ${4, 4, 2, 4, 4, 2, 2, 4, 4, 4 ! Slice}
**.ue[57].macCellId = ${4, 1, 5, 2, 2, 5, 3, 3, 5, 4 ! Slice}
**.ue[57].masterId = ${4, 1, 5, 2, 2, 5, 3, 3, 5, 4 ! Slice}
**.ue[58].macCellId = ${4, 2, 1, 3, 3, 4, 2, 2, 5, 1 ! Slice}
**.ue[58].masterId = ${4, 2, 1, 3, 3, 4, 2, 2, 5, 1 ! Slice}
**.ue[59].macCellId = ${4, 2, 4, 5, 3, 3, 3, 3, 3, 1 ! Slice}
**.ue[59].masterId = ${4, 2, 4, 5, 3, 3, 3, 3, 3, 1 ! Slice}

# Scheduler
**.schedulingDisciplineUl = ${sched= "MAXCI"}
**.schedulingDisciplineDl = ${sched}

############### Scenario ###############

# eNodeBs
**.eNB0.cellularNic.channelModel[*].scenario = "URBAN_MICROCELL"
**.eNB1.cellularNic.channelModel[*].scenario = "URBAN_MICROCELL"
**.eNB2.cellularNic.channelModel[*].scenario = "URBAN_MICROCELL"
**.eNB3.cellularNic.channelModel[*].scenario = "URBAN_MICROCELL"
**.eNB4.cellularNic.channelModel[*].scenario = "URBAN_MICROCELL"

# UEs
**.ue[0].cellularNic.channelModel[*].scenario = "URBAN_MICROCELL"
**.ue[1].cellularNic.channelModel[*].scenario = "URBAN_MICROCELL"
**.ue[2].cellularNic.channelModel[*].scenario = "URBAN_MICROCELL"
**.ue[3].cellularNic.channelModel[*].scenario = "URBAN_MICROCELL"
**.ue[4].cellularNic.channelModel[*].scenario = "URBAN_MICROCELL"
**.ue[5].cellularNic.channelModel[*].scenario = "URBAN_MICROCELL"
**.ue[6].cellularNic.channelModel[*].scenario = "URBAN_MICROCELL"
**.ue[7].cellularNic.channelModel[*].scenario = "URBAN_MICROCELL"
**.ue[8].cellularNic.channelModel[*].scenario = "URBAN_MICROCELL"
**.ue[9].cellularNic.channelModel[*].scenario = "URBAN_MICROCELL"
**.ue[10].cellularNic.channelModel[*].scenario = "URBAN_MICROCELL"
**.ue[11].cellularNic.channelModel[*].scenario = "URBAN_MICROCELL"
**.ue[12].cellularNic.channelModel[*].scenario = "URBAN_MICROCELL"
**.ue[13].cellularNic.channelModel[*].scenario = "URBAN_MICROCELL"
**.ue[14].cellularNic.channelModel[*].scenario = "URBAN_MICROCELL"
**.ue[15].cellularNic.channelModel[*].scenario = "URBAN_MICROCELL"
**.ue[16].cellularNic.channelModel[*].scenario = "URBAN_MICROCELL"
**.ue[17].cellularNic.channelModel[*].scenario = "URBAN_MICROCELL"
**.ue[18].cellularNic.channelModel[*].scenario = "URBAN_MICROCELL"
**.ue[19].cellularNic.channelModel[*].scenario = "URBAN_MICROCELL"
**.ue[20].cellularNic.channelModel[*].scenario = "URBAN_MICROCELL"
**.ue[21].cellularNic.channelModel[*].scenario = "URBAN_MICROCELL"
**.ue[22].cellularNic.channelModel[*].scenario = "URBAN_MICROCELL"
**.ue[23].cellularNic.channelModel[*].scenario = "URBAN_MICROCELL"
**.ue[24].cellularNic.channelModel[*].scenario = "URBAN_MICROCELL"
**.ue[25].cellularNic.channelModel[*].scenario = "URBAN_MICROCELL"
**.ue[26].cellularNic.channelModel[*].scenario = "URBAN_MICROCELL"
**.ue[27].cellularNic.channelModel[*].scenario = "URBAN_MICROCELL"
**.ue[28].cellularNic.channelModel[*].scenario = "URBAN_MICROCELL"
**.ue[29].cellularNic.channelModel[*].scenario = "URBAN_MICROCELL"
**.ue[30].cellularNic.channelModel[*].scenario = "URBAN_MICROCELL"
**.ue[31].cellularNic.channelModel[*].scenario = "URBAN_MICROCELL"
**.ue[32].cellularNic.channelModel[*].scenario = "URBAN_MICROCELL"
**.ue[33].cellularNic.channelModel[*].scenario = "URBAN_MICROCELL"
**.ue[34].cellularNic.channelModel[*].scenario = "URBAN_MICROCELL"
**.ue[35].cellularNic.channelModel[*].scenario = "URBAN_MICROCELL"
**.ue[36].cellularNic.channelModel[*].scenario = "URBAN_MICROCELL"
**.ue[37].cellularNic.channelModel[*].scenario = "URBAN_MICROCELL"
**.ue[38].cellularNic.channelModel[*].scenario = "URBAN_MICROCELL"
**.ue[39].cellularNic.channelModel[*].scenario = "URBAN_MICROCELL"
**.ue[40].cellularNic.channelModel[*].scenario = "URBAN_MICROCELL"
**.ue[41].cellularNic.channelModel[*].scenario = "URBAN_MICROCELL"
**.ue[42].cellularNic.channelModel[*].scenario = "URBAN_MICROCELL"
**.ue[43].cellularNic.channelModel[*].scenario = "URBAN_MICROCELL"
**.ue[44].cellularNic.channelModel[*].scenario = "URBAN_MICROCELL"
**.ue[45].cellularNic.channelModel[*].scenario = "URBAN_MICROCELL"
**.ue[46].cellularNic.channelModel[*].scenario = "URBAN_MICROCELL"
**.ue[47].cellularNic.channelModel[*].scenario = "URBAN_MICROCELL"
**.ue[48].cellularNic.channelModel[*].scenario = "URBAN_MICROCELL"
**.ue[49].cellularNic.channelModel[*].scenario = "URBAN_MICROCELL"
**.ue[50].cellularNic.channelModel[*].scenario = "URBAN_MICROCELL"
**.ue[51].cellularNic.channelModel[*].scenario = "URBAN_MICROCELL"
**.ue[52].cellularNic.channelModel[*].scenario = "URBAN_MICROCELL"
**.ue[53].cellularNic.channelModel[*].scenario = "URBAN_MICROCELL"
**.ue[54].cellularNic.channelModel[*].scenario = "URBAN_MICROCELL"
**.ue[55].cellularNic.channelModel[*].scenario = "URBAN_MICROCELL"
**.ue[56].cellularNic.channelModel[*].scenario = "URBAN_MICROCELL"
**.ue[57].cellularNic.channelModel[*].scenario = "URBAN_MICROCELL"
**.ue[58].cellularNic.channelModel[*].scenario = "URBAN_MICROCELL"
**.ue[59].cellularNic.channelModel[*].scenario = "URBAN_MICROCELL"

############### Mobility ###############

# eNodeB
*.eNB0.mobility.initialX = 3000.0m
*.eNB0.mobility.initialY = 200.0m
*.eNB0.mobility.initialZ = 0m
*.eNB0.mobility.initFromDisplayString = false
*.eNB1.mobility.initialX = 1000.0m
*.eNB1.mobility.initialY = 1000.0m
*.eNB1.mobility.initialZ = 0m
*.eNB1.mobility.initFromDisplayString = false
*.eNB2.mobility.initialX = 3000.0m
*.eNB2.mobility.initialY = 2200.0m
*.eNB2.mobility.initialZ = 0m
*.eNB2.mobility.initFromDisplayString = false
*.eNB3.mobility.initialX = 600.0m
*.eNB3.mobility.initialY = 2600.0m
*.eNB3.mobility.initialZ = 0m
*.eNB3.mobility.initFromDisplayString = false
*.eNB4.mobility.initialX = 2200.0m
*.eNB4.mobility.initialY = 2600.0m
*.eNB4.mobility.initialZ = 0m
*.eNB4.mobility.initFromDisplayString = false
*.eNB*.mobility.constraintAreaMaxX = 4000 m
*.eNB*.mobility.constraintAreaMaxY = 4000 m
*.eNB*.mobility.constraintAreaMaxZ = inf m
*.eNB*.mobility.constraintAreaMinX = 0 m
*.eNB*.mobility.constraintAreaMinY = 0 m
*.eNB*.mobility.constraintAreaMinZ = -inf m

# UEs

*.ue[*].mobilityType = "LinearMobility"
*.ue[0].mobility.initialX = ${879.2344302167759m, 2916.65m, 2403.89m, 224.418m, 3675.22m, 489.938m, 3609.94m, 576.241m, 2485.7m, 1715.43m ! Slice}
*.ue[0].mobility.initialY = ${2642.9304955525195m, 2315.46m, 2072.67m, 1819.4m, 1448.48m, 1160.34m, 791.256m, 442.941m, 169.347m, 183.625m ! Slice}
*.ue[0].mobility.initialZ = ${0m, 0.0m, 0.0m, 0.0m, 0.0m, 0.0m, 0.0m, 0.0m, 0.0m, 0.0m ! Slice}
*.ue[0].mobility.initFromDisplayString = false
*.ue[1].mobility.initialX = ${512.3549593443763m, 1905.75m, 3869.09m, 1986.19m, 51.5387m, 2253.8m, 2710.23m, 1360.44m, 426.09m, 2678.8m ! Slice}
*.ue[1].mobility.initialY = ${3029.324251991552m, 244.038m, 3534.38m, 1775.88m, 1385.43m, 3810.34m, 50.321m, 2389.34m, 3147.71m, 99.2011m ! Slice}
*.ue[1].mobility.initialZ = ${0m, 0.0m, 0.0m, 0.0m, 0.0m, 0.0m, 0.0m, 0.0m, 0.0m, 0.0m ! Slice}
*.ue[1].mobility.initFromDisplayString = false
*.ue[2].mobility.initialX = ${619.4764416776574m, 2747.33m, 3983.1m, 1916.93m, 1379.62m, 2571.27m, 3489.92m, 2890.71m, 751.902m, 802.545m ! Slice}
*.ue[2].mobility.initialY = ${2927.200973479788m, 1249.92m, 249.196m, 1411.2m, 3709.94m, 3072.71m, 1758.21m, 1082.14m, 808.174m, 1746.64m ! Slice}
*.ue[2].mobility.initialZ = ${0m, 0.0m, 0.0m, 0.0m, 0.0m, 0.0m, 0.0m, 0.0m, 0.0m, 0.0m ! Slice}
*.ue[2].mobility.initFromDisplayString = false
*.ue[3].mobility.initialX = ${525.5444750453303m, 2796.73m, 3089.41m, 82.5735m, 2567.48m, 2240.03m, 1183.89m, 2695.36m, 2660.16m, 265.523m ! Slice}
*.ue[3].mobility.initialY = ${3002.7803354539474m, 1719.48m, 910.211m, 532.283m, 1422.14m, 2601.84m, 3887.86m, 3335.71m, 2370.55m, 1325.64m ! Slice}
*.ue[3].mobility.initialZ = ${0m, 0.0m, 0.0m, 0.0m, 0.0m, 0.0m, 0.0m, 0.0m, 0.0m, 0.0m ! Slice}
*.ue[3].mobility.initFromDisplayString = false
*.ue[4].mobility.initialX = ${526.1925522652757m, 2225.52m, 3896.42m, 2303.03m, 117.446m, 947.437m, 2385.66m, 2022.64m, 846.435m, 1541.32m ! Slice}
*.ue[4].mobility.initialY = ${2864.1332212694306m, 709.306m, 1766.14m, 3692.67m, 1514.05m, 185.581m, 1651.62m, 1744.43m, 315.907m, 2560.4m ! Slice}
*.ue[4].mobility.initialZ = ${0m, 0.0m, 0.0m, 0.0m, 0.0m, 0.0m, 0.0m, 0.0m, 0.0m, 0.0m ! Slice}
*.ue[4].mobility.initFromDisplayString = false
*.ue[5].mobility.initialX = ${754.7496992845365m, 3118.52m, 757.745m, 2430.39m, 1402.45m, 2837.23m, 1290.28m, 2166.27m, 2976.75m, 1632.24m ! Slice}
*.ue[5].mobility.initialY = ${2992.8925909990685m, 3307.13m, 3838.89m, 3712.05m, 3202.78m, 2636.84m, 2114.69m, 1658.13m, 1294.7m, 1070.36m ! Slice}
*.ue[5].mobility.initialZ = ${0m, 0.0m, 0.0m, 0.0m, 0.0m, 0.0m, 0.0m, 0.0m, 0.0m, 0.0m ! Slice}
*.ue[5].mobility.initFromDisplayString = false
*.ue[6].mobility.initialX = ${717.150380307725m, 1606.43m, 2413.33m, 1690.43m, 2797.18m, 37.3726m, 2099.73m, 477.373m, 2584.5m, 2681.88m ! Slice}
*.ue[6].mobility.initialY = ${2877.9843030456277m, 2283.93m, 1285.35m, 177.883m, 797.55m, 1667.0m, 2249.33m, 3769.16m, 3290.35m, 2607.28m ! Slice}
*.ue[6].mobility.initialZ = ${0m, 0.0m, 0.0m, 0.0m, 0.0m, 0.0m, 0.0m, 0.0m, 0.0m, 0.0m ! Slice}
*.ue[6].mobility.initFromDisplayString = false
*.ue[7].mobility.initialX = ${667.2007148845437m, 654.454m, 636.491m, 621.382m, 611.258m, 590.373m, 571.154m, 557.684m, 533.093m, 514.997m ! Slice}
*.ue[7].mobility.initialY = ${2929.8807319786683m, 2556.55m, 972.92m, 3195.51m, 2870.4m, 1350.39m, 3743.3m, 1313.35m, 3339.05m, 1530.78m ! Slice}
*.ue[7].mobility.initialZ = ${0m, 0.0m, 0.0m, 0.0m, 0.0m, 0.0m, 0.0m, 0.0m, 0.0m, 0.0m ! Slice}
*.ue[7].mobility.initFromDisplayString = false
*.ue[8].mobility.initialX = ${1102.5337087676198m, 206.594m, 1138.92m, 1950.61m, 2861.69m, 3361.53m, 3627.68m, 2866.02m, 2267.38m, 1441.15m ! Slice}
*.ue[8].mobility.initialY = ${2802.110248145066m, 1542.16m, 3547.41m, 1513.66m, 2169.63m, 3823.24m, 774.243m, 2664.72m, 2918.87m, 14.3737m ! Slice}
*.ue[8].mobility.initialZ = ${0m, 0.0m, 0.0m, 0.0m, 0.0m, 0.0m, 0.0m, 0.0m, 0.0m, 0.0m ! Slice}
*.ue[8].mobility.initFromDisplayString = false
*.ue[9].mobility.initialX = ${1020.1359630925116m, 2408.74m, 1682.26m, 1932.24m, 3166.1m, 3676.67m, 627.049m, 1929.34m, 2157.82m, 1197.19m ! Slice}
*.ue[9].mobility.initialY = ${2862.2640809602995m, 2004.44m, 986.81m, 33.1808m, 379.322m, 649.849m, 1498.36m, 2163.29m, 3118.77m, 3996.58m ! Slice}
*.ue[9].mobility.initialZ = ${0m, 0.0m, 0.0m, 0.0m, 0.0m, 0.0m, 0.0m, 0.0m, 0.0m, 0.0m ! Slice}
*.ue[9].mobility.initFromDisplayString = false
*.ue[10].mobility.initialX = ${1025.0329999619173m, 1032.75m, 1681.97m, 3037.73m, 2766.68m, 566.305m, 340.5m, 2991.06m, 1652.67m, 1419.93m ! Slice}
*.ue[10].mobility.initialY = ${3055.1362126598583m, 3331.93m, 2864.39m, 1822.41m, 260.962m, 1576.06m, 2202.81m, 3360.69m, 1240.21m, 1203.13m ! Slice}
*.ue[10].mobility.initialZ = ${0m, 0.0m, 0.0m, 0.0m, 0.0m, 0.0m, 0.0m, 0.0m, 0.0m, 0.0m ! Slice}
*.ue[10].mobility.initFromDisplayString = false
*.ue[11].mobility.initialX = ${855.2258632377857m, 698.25m, 420.343m, 317.971m, 0.690592m, 412.876m, 544.531m, 845.317m, 1093.55m, 1200.86m ! Slice}
*.ue[11].mobility.initialY = ${2879.053326410829m, 1540.38m, 1107.91m, 1702.59m, 3146.11m, 64.8344m, 1057.91m, 3622.97m, 2239.85m, 1345.0m ! Slice}
*.ue[11].mobility.initialZ = ${0m, 0.0m, 0.0m, 0.0m, 0.0m, 0.0m, 0.0m, 0.0m, 0.0m, 0.0m ! Slice}
*.ue[11].mobility.initFromDisplayString = false
*.ue[12].mobility.initialX = ${999.5672154136952m, 1147.49m, 1378.18m, 1535.43m, 1636.96m, 1832.37m, 2050.01m, 2226.78m, 2397.58m, 2636.86m ! Slice}
*.ue[12].mobility.initialY = ${3127.4653942325017m, 1003.31m, 2462.7m, 3162.88m, 1974.72m, 1198.58m, 3956.53m, 1505.21m, 1199.01m, 3055.06m ! Slice}
*.ue[12].mobility.initialZ = ${0m, 0.0m, 0.0m, 0.0m, 0.0m, 0.0m, 0.0m, 0.0m, 0.0m, 0.0m ! Slice}
*.ue[12].mobility.initFromDisplayString = false
*.ue[13].mobility.initialX = ${908.6269623927143m, 375.454m, 889.239m, 1991.83m, 3072.81m, 2849.55m, 1951.8m, 356.85m, 1189.55m, 2555.99m ! Slice}
*.ue[13].mobility.initialY = ${3127.1459139373424m, 1976.77m, 434.252m, 2343.26m, 2757.99m, 2236.77m, 3333.04m, 239.916m, 3963.76m, 568.805m ! Slice}
*.ue[13].mobility.initialZ = ${0m, 0.0m, 0.0m, 0.0m, 0.0m, 0.0m, 0.0m, 0.0m, 0.0m, 0.0m ! Slice}
*.ue[13].mobility.initFromDisplayString = false
*.ue[14].mobility.initialX = ${1233.3017304618422m, 354.768m, 435.702m, 1266.26m, 2658.91m, 3991.86m, 3130.67m, 2127.21m, 502.331m, 969.528m ! Slice}
*.ue[14].mobility.initialY = ${2902.941851747686m, 2544.75m, 801.68m, 1662.87m, 2317.42m, 1253.51m, 3108.15m, 2092.85m, 2478.68m, 1888.29m ! Slice}
*.ue[14].mobility.initialZ = ${0m, 0.0m, 0.0m, 0.0m, 0.0m, 0.0m, 0.0m, 0.0m, 0.0m, 0.0m ! Slice}
*.ue[14].mobility.initFromDisplayString = false
*.ue[15].mobility.initialX = ${1257.3004200035116m, 2616.84m, 2738.28m, 319.774m, 1743.12m, 2713.78m, 758.038m, 1994.98m, 2774.8m, 1750.65m ! Slice}
*.ue[15].mobility.initialY = ${2881.532215683138m, 3592.04m, 2862.81m, 1904.49m, 1166.36m, 37.3371m, 814.755m, 1766.56m, 2833.86m, 3399.1m ! Slice}
*.ue[15].mobility.initialZ = ${0m, 0.0m, 0.0m, 0.0m, 0.0m, 0.0m, 0.0m, 0.0m, 0.0m, 0.0m ! Slice}
*.ue[15].mobility.initFromDisplayString = false
*.ue[16].mobility.initialX = ${1288.5956867544144m, 906.835m, 572.897m, 230.246m, 387.886m, 765.499m, 1686.38m, 2486.93m, 3552.23m, 3834.12m ! Slice}
*.ue[16].mobility.initialY = ${3072.352757023779m, 2984.88m, 1633.3m, 56.087m, 2608.93m, 3250.18m, 1424.2m, 2992.34m, 1992.48m, 2652.11m ! Slice}
*.ue[16].mobility.initialZ = ${0m, 0.0m, 0.0m, 0.0m, 0.0m, 0.0m, 0.0m, 0.0m, 0.0m, 0.0m ! Slice}
*.ue[16].mobility.initFromDisplayString = false
*.ue[17].mobility.initialX = ${904.8777168274382m, 2143.41m, 3738.75m, 2658.09m, 567.064m, 1193.77m, 2846.95m, 3986.48m, 1962.31m, 670.421m ! Slice}
*.ue[17].mobility.initialY = ${3358.6975227885287m, 3413.39m, 2125.19m, 719.423m, 1270.61m, 2656.0m, 3574.3m, 2778.26m, 981.06m, 324.424m ! Slice}
*.ue[17].mobility.initialZ = ${0m, 0.0m, 0.0m, 0.0m, 0.0m, 0.0m, 0.0m, 0.0m, 0.0m, 0.0m ! Slice}
*.ue[17].mobility.initFromDisplayString = false
*.ue[18].mobility.initialX = ${894.8145392860033m, 775.868m, 697.593m, 587.913m, 473.008m, 368.457m, 268.344m, 208.483m, 44.4649m, 31.9345m ! Slice}
*.ue[18].mobility.initialY = ${3367.625672983666m, 210.597m, 1866.97m, 2833.72m, 172.164m, 2602.79m, 2515.48m, 1151.25m, 3402.9m, 2846.61m ! Slice}
*.ue[18].mobility.initialZ = ${0m, 0.0m, 0.0m, 0.0m, 0.0m, 0.0m, 0.0m, 0.0m, 0.0m, 0.0m ! Slice}
*.ue[18].mobility.initFromDisplayString = false
*.ue[19].mobility.initialX = ${922.7852488514739m, 862.665m, 776.38m, 738.429m, 714.989m, 663.199m, 564.441m, 489.458m, 426.36m, 352.667m ! Slice}
*.ue[19].mobility.initialY = ${3402.2507147847386m, 1672.73m, 2530.23m, 3994.95m, 2901.12m, 484.429m, 3075.96m, 1470.58m, 1603.76m, 2737.33m ! Slice}
*.ue[19].mobility.initialZ = ${0m, 0.0m, 0.0m, 0.0m, 0.0m, 0.0m, 0.0m, 0.0m, 0.0m, 0.0m ! Slice}
*.ue[19].mobility.initFromDisplayString = false
*.ue[20].mobility.initialX = ${939.0524720505707m, 609.479m, 1736.43m, 2828.07m, 2158.66m, 257.918m, 2371.16m, 3608.59m, 2936.15m, 1475.16m ! Slice}
*.ue[20].mobility.initialY = ${3394.321633208476m, 1469.8m, 640.926m, 1933.69m, 1722.77m, 1949.85m, 2993.72m, 1647.65m, 629.385m, 2476.91m ! Slice}
*.ue[20].mobility.initialZ = ${0m, 0.0m, 0.0m, 0.0m, 0.0m, 0.0m, 0.0m, 0.0m, 0.0m, 0.0m ! Slice}
*.ue[20].mobility.initFromDisplayString = false
*.ue[21].mobility.initialX = ${893.3755639262174m, 2135.4m, 3872.11m, 1991.18m, 1070.78m, 2764.37m, 1551.81m, 980.267m, 3069.46m, 2665.74m ! Slice}
*.ue[21].mobility.initialY = ${3425.2789422485484m, 1446.95m, 117.443m, 1365.7m, 3244.87m, 1922.87m, 776.334m, 921.077m, 2431.4m, 3907.21m ! Slice}
*.ue[21].mobility.initialZ = ${0m, 0.0m, 0.0m, 0.0m, 0.0m, 0.0m, 0.0m, 0.0m, 0.0m, 0.0m ! Slice}
*.ue[21].mobility.initFromDisplayString = false
*.ue[22].mobility.initialX = ${897.8202080100504m, 3990.48m, 2015.84m, 1192.05m, 1967.49m, 1183.55m, 3322.14m, 3557.09m, 1052.72m, 2291.61m ! Slice}
*.ue[22].mobility.initialY = ${3446.527202455009m, 3151.16m, 2429.22m, 1242.54m, 915.441m, 2075.89m, 3141.24m, 3239.37m, 3229.62m, 2012.73m ! Slice}
*.ue[22].mobility.initialZ = ${0m, 0.0m, 0.0m, 0.0m, 0.0m, 0.0m, 0.0m, 0.0m, 0.0m, 0.0m ! Slice}
*.ue[22].mobility.initFromDisplayString = false
*.ue[23].mobility.initialX = ${831.189667763695m, 2147.81m, 2617.42m, 975.182m, 2745.91m, 1428.5m, 3743.51m, 829.219m, 2231.37m, 2242.94m ! Slice}
*.ue[23].mobility.initialY = ${3391.287576892203m, 3224.56m, 2858.15m, 2427.21m, 1899.5m, 1364.62m, 931.459m, 562.422m, 188.597m, 261.778m ! Slice}
*.ue[23].mobility.initialZ = ${0m, 0.0m, 0.0m, 0.0m, 0.0m, 0.0m, 0.0m, 0.0m, 0.0m, 0.0m ! Slice}
*.ue[23].mobility.initFromDisplayString = false
*.ue[24].mobility.initialX = ${938.3355243196282m, 1310.01m, 2538.64m, 3519.51m, 2323.42m, 186.497m, 2012.92m, 3662.02m, 2528.09m, 444.804m ! Slice}
*.ue[24].mobility.initialY = ${3458.2383150986598m, 126.861m, 2162.78m, 2803.01m, 764.32m, 3399.81m, 1697.71m, 1206.6m, 3781.62m, 794.18m ! Slice}
*.ue[24].mobility.initialZ = ${0m, 0.0m, 0.0m, 0.0m, 0.0m, 0.0m, 0.0m, 0.0m, 0.0m, 0.0m ! Slice}
*.ue[24].mobility.initFromDisplayString = false
*.ue[25].mobility.initialX = ${872.4054878206756m, 178.287m, 444.55m, 1018.2m, 1696.22m, 2270.37m, 2885.51m, 3385.15m, 3644.21m, 2977.5m ! Slice}
*.ue[25].mobility.initialY = ${3467.6567365976184m, 882.431m, 2206.41m, 2558.0m, 1095.81m, 3511.37m, 1307.94m, 1408.52m, 1910.83m, 1953.27m ! Slice}
*.ue[25].mobility.initialZ = ${0m, 0.0m, 0.0m, 0.0m, 0.0m, 0.0m, 0.0m, 0.0m, 0.0m, 0.0m ! Slice}
*.ue[25].mobility.initFromDisplayString = false
*.ue[26].mobility.initialX = ${901.3860179902013m, 623.313m, 2178.04m, 3390.16m, 2571.1m, 1820.52m, 414.743m, 1661.46m, 2329.08m, 3968.58m ! Slice}
*.ue[26].mobility.initialY = ${3380.568653701542m, 1946.37m, 1576.91m, 3517.83m, 751.309m, 890.639m, 3472.21m, 642.795m, 734.247m, 3902.66m ! Slice}
*.ue[26].mobility.initialZ = ${0m, 0.0m, 0.0m, 0.0m, 0.0m, 0.0m, 0.0m, 0.0m, 0.0m, 0.0m ! Slice}