[General]
sim-time-limit = 10s

############### Statistics ###############
output-scalar-file = ${resultdir}/${configname}/${repetition}.sca
output-vector-file = ${resultdir}/${configname}/${repetition}.vec
**.vector-recording = false
seed-set = ${repetition}

############### Resource Blocks ###############
**.numRbDl = 6
**.numRbUl = 6
**.binder.numBands = 6 # this value should be kept equal to the number of RBs

[Config Teste]
network = LTE.networks.UrbanMacro
sim-time-limit = 10s
repeat = 1
seed-set = ${repetition}
num-rngs = 2
seed-1-mt = 123

output-scalar-file = ${resultdir}/${configname}/${sched}-${repetition}.sca
output-vector-file = ${resultdir}/${configname}/${sched}-${repetition}.vec
**.vector-recording = false

############### Micro Cell ###############
**.microCell.cellInfo.microCell = true

############### Transmission Power ###############
**.ueTxPower = 24
**.eNodeBTxPower = 46
**.microTxPower = 30

############### UEs ###############
**.numUe = 200

# Conecting UEs to eNodeB
**.ue[0].macCellId = 1
**.ue[0].masterId = 1
**.ue[1].macCellId = 1
**.ue[1].masterId = 1
**.ue[2].macCellId = 1
**.ue[2].masterId = 1
**.ue[3].macCellId = 1
**.ue[3].masterId = 1
**.ue[4].macCellId = 1
**.ue[4].masterId = 1
**.ue[5].macCellId = 1
**.ue[5].masterId = 1
**.ue[6].macCellId = 1
**.ue[6].masterId = 1
**.ue[7].macCellId = 1
**.ue[7].masterId = 1
**.ue[8].macCellId = 1
**.ue[8].masterId = 1
**.ue[9].macCellId = 1
**.ue[9].masterId = 1
**.ue[10].macCellId = 1
**.ue[10].masterId = 1
**.ue[11].macCellId = 1
**.ue[11].masterId = 1
**.ue[12].macCellId = 1
**.ue[12].masterId = 1
**.ue[13].macCellId = 1
**.ue[13].masterId = 1
**.ue[14].macCellId = 1
**.ue[14].masterId = 1
**.ue[15].macCellId = 1
**.ue[15].masterId = 1
**.ue[16].macCellId = 1
**.ue[16].masterId = 1
**.ue[17].macCellId = 1
**.ue[17].masterId = 1
**.ue[18].macCellId = 1
**.ue[18].masterId = 1
**.ue[19].macCellId = 1
**.ue[19].masterId = 1
**.ue[20].macCellId = 1
**.ue[20].masterId = 1
**.ue[21].macCellId = 1
**.ue[21].masterId = 1
**.ue[22].macCellId = 1
**.ue[22].masterId = 1
**.ue[23].macCellId = 1
**.ue[23].masterId = 1
**.ue[24].macCellId = 1
**.ue[24].masterId = 1
**.ue[25].macCellId = 1
**.ue[25].masterId = 1
**.ue[26].macCellId = 1
**.ue[26].masterId = 1
**.ue[27].macCellId = 1
**.ue[27].masterId = 1
**.ue[28].macCellId = 1
**.ue[28].masterId = 1
**.ue[29].macCellId = 1
**.ue[29].masterId = 1
**.ue[30].macCellId = 1
**.ue[30].masterId = 1
**.ue[31].macCellId = 1
**.ue[31].masterId = 1
**.ue[32].macCellId = 1
**.ue[32].masterId = 1
**.ue[33].macCellId = 1
**.ue[33].masterId = 1
**.ue[34].macCellId = 1
**.ue[34].masterId = 1
**.ue[35].macCellId = 1
**.ue[35].masterId = 1
**.ue[36].macCellId = 1
**.ue[36].masterId = 1
**.ue[37].macCellId = 1
**.ue[37].masterId = 1
**.ue[38].macCellId = 1
**.ue[38].masterId = 1
**.ue[39].macCellId = 1
**.ue[39].masterId = 1
**.ue[40].macCellId = 1
**.ue[40].masterId = 1
**.ue[41].macCellId = 1
**.ue[41].masterId = 1
**.ue[42].macCellId = 1
**.ue[42].masterId = 1
**.ue[43].macCellId = 1
**.ue[43].masterId = 1
**.ue[44].macCellId = 1
**.ue[44].masterId = 1
**.ue[45].macCellId = 1
**.ue[45].masterId = 1
**.ue[46].macCellId = 1
**.ue[46].masterId = 1
**.ue[47].macCellId = 1
**.ue[47].masterId = 1
**.ue[48].macCellId = 1
**.ue[48].masterId = 1
**.ue[49].macCellId = 1
**.ue[49].masterId = 1
**.ue[50].macCellId = 1
**.ue[50].masterId = 1
**.ue[51].macCellId = 1
**.ue[51].masterId = 1
**.ue[52].macCellId = 1
**.ue[52].masterId = 1
**.ue[53].macCellId = 1
**.ue[53].masterId = 1
**.ue[54].macCellId = 1
**.ue[54].masterId = 1
**.ue[55].macCellId = 1
**.ue[55].masterId = 1
**.ue[56].macCellId = 1
**.ue[56].masterId = 1
**.ue[57].macCellId = 1
**.ue[57].masterId = 1
**.ue[58].macCellId = 1
**.ue[58].masterId = 1
**.ue[59].macCellId = 1
**.ue[59].masterId = 1
**.ue[60].macCellId = 1
**.ue[60].masterId = 1
**.ue[61].macCellId = 1
**.ue[61].masterId = 1
**.ue[62].macCellId = 1
**.ue[62].masterId = 1
**.ue[63].macCellId = 1
**.ue[63].masterId = 1
**.ue[64].macCellId = 1
**.ue[64].masterId = 1
**.ue[65].macCellId = 1
**.ue[65].masterId = 1
**.ue[66].macCellId = 1
**.ue[66].masterId = 1
**.ue[67].macCellId = 1
**.ue[67].masterId = 1
**.ue[68].macCellId = 1
**.ue[68].masterId = 1
**.ue[69].macCellId = 1
**.ue[69].masterId = 1
**.ue[70].macCellId = 1
**.ue[70].masterId = 1
**.ue[71].macCellId = 1
**.ue[71].masterId = 1
**.ue[72].macCellId = 1
**.ue[72].masterId = 1
**.ue[73].macCellId = 2
**.ue[73].masterId = 2
**.ue[74].macCellId = 2
**.ue[74].masterId = 2
**.ue[75].macCellId = 2
**.ue[75].masterId = 2
**.ue[76].macCellId = 2
**.ue[76].masterId = 2
**.ue[77].macCellId = 2
**.ue[77].masterId = 2
**.ue[78].macCellId = 2
**.ue[78].masterId = 2
**.ue[79].macCellId = 2
**.ue[79].masterId = 2
**.ue[80].macCellId = 2
**.ue[80].masterId = 2
**.ue[81].macCellId = 2
**.ue[81].masterId = 2
**.ue[82].macCellId = 2
**.ue[82].masterId = 2
**.ue[83].macCellId = 2
**.ue[83].masterId = 2
**.ue[84].macCellId = 2
**.ue[84].masterId = 2
**.ue[85].macCellId = 2
**.ue[85].masterId = 2
**.ue[86].macCellId = 2
**.ue[86].masterId = 2
**.ue[87].macCellId = 2
**.ue[87].masterId = 2
**.ue[88].macCellId = 2
**.ue[88].masterId = 2
**.ue[89].macCellId = 2
**.ue[89].masterId = 2
**.ue[90].macCellId = 2
**.ue[90].masterId = 2
**.ue[91].macCellId = 2
**.ue[91].masterId = 2
**.ue[92].macCellId = 2
**.ue[92].masterId = 2
**.ue[93].macCellId = 2
**.ue[93].masterId = 2
**.ue[94].macCellId = 2
**.ue[94].masterId = 2
**.ue[95].macCellId = 2
**.ue[95].masterId = 2
**.ue[96].macCellId = 2
**.ue[96].masterId = 2
**.ue[97].macCellId = 2
**.ue[97].masterId = 2
**.ue[98].macCellId = 2
**.ue[98].masterId = 2
**.ue[99].macCellId = 2
**.ue[99].masterId = 2
**.ue[100].macCellId = 2
**.ue[100].masterId = 2
**.ue[101].macCellId = 2
**.ue[101].masterId = 2
**.ue[102].macCellId = 2
**.ue[102].masterId = 2
**.ue[103].macCellId = 2
**.ue[103].masterId = 2
**.ue[104].macCellId = 2
**.ue[104].masterId = 2
**.ue[105].macCellId = 2
**.ue[105].masterId = 2
**.ue[106].macCellId = 2
**.ue[106].masterId = 2
**.ue[107].macCellId = 2
**.ue[107].masterId = 2
**.ue[108].macCellId = 2
**.ue[108].masterId = 2
**.ue[109].macCellId = 2
**.ue[109].masterId = 2
**.ue[110].macCellId = 2
**.ue[110].masterId = 2
**.ue[111].macCellId = 2
**.ue[111].masterId = 2
**.ue[112].macCellId = 2
**.ue[112].masterId = 2
**.ue[113].macCellId = 2
**.ue[113].masterId = 2
**.ue[114].macCellId = 2
**.ue[114].masterId = 2
**.ue[115].macCellId = 2
**.ue[115].masterId = 2
**.ue[116].macCellId = 2
**.ue[116].masterId = 2
**.ue[117].macCellId = 2
**.ue[117].masterId = 2
**.ue[118].macCellId = 2
**.ue[118].masterId = 2
**.ue[119].macCellId = 2
**.ue[119].masterId = 2
**.ue[120].macCellId = 2
**.ue[120].masterId = 2
**.ue[121].macCellId = 2
**.ue[121].masterId = 2
**.ue[122].macCellId = 2
**.ue[122].masterId = 2
**.ue[123].macCellId = 2
**.ue[123].masterId = 2
**.ue[124].macCellId = 2
**.ue[124].masterId = 2
**.ue[125].macCellId = 2
**.ue[125].masterId = 2
**.ue[126].macCellId = 2
**.ue[126].masterId = 2
**.ue[127].macCellId = 2
**.ue[127].masterId = 2
**.ue[128].macCellId = 2
**.ue[128].masterId = 2
**.ue[129].macCellId = 2
**.ue[129].masterId = 2
**.ue[130].macCellId = 2
**.ue[130].masterId = 2
**.ue[131].macCellId = 2
**.ue[131].masterId = 2
**.ue[132].macCellId = 2
**.ue[132].masterId = 2
**.ue[133].macCellId = 2
**.ue[133].masterId = 2
**.ue[134].macCellId = 2
**.ue[134].masterId = 2
**.ue[135].macCellId = 2
**.ue[135].masterId = 2
**.ue[136].macCellId = 2
**.ue[136].masterId = 2
**.ue[137].macCellId = 2
**.ue[137].masterId = 2
**.ue[138].macCellId = 2
**.ue[138].masterId = 2
**.ue[139].macCellId = 2
**.ue[139].masterId = 2
**.ue[140].macCellId = 2
**.ue[140].masterId = 2
**.ue[141].macCellId = 2
**.ue[141].masterId = 2
**.ue[142].macCellId = 2
**.ue[142].masterId = 2
**.ue[143].macCellId = 2
**.ue[143].masterId = 2
**.ue[144].macCellId = 2
**.ue[144].masterId = 2
**.ue[145].macCellId = 2
**.ue[145].masterId = 2
**.ue[146].macCellId = 2
**.ue[146].masterId = 2
**.ue[147].macCellId = 2
**.ue[147].masterId = 2
**.ue[148].macCellId = 2
**.ue[148].masterId = 2
**.ue[149].macCellId = 2
**.ue[149].masterId = 2
**.ue[150].macCellId = 2
**.ue[150].masterId = 2
**.ue[151].macCellId = 2
**.ue[151].masterId = 2
**.ue[152].macCellId = 2
**.ue[152].masterId = 2
**.ue[153].macCellId = 2
**.ue[153].masterId = 2
**.ue[154].macCellId = 2
**.ue[154].masterId = 2
**.ue[155].macCellId = 2
**.ue[155].masterId = 2
**.ue[156].macCellId = 2
**.ue[156].masterId = 2
**.ue[157].macCellId = 2
**.ue[157].masterId = 2
**.ue[158].macCellId = 2
**.ue[158].masterId = 2
**.ue[159].macCellId = 2
**.ue[159].masterId = 2
**.ue[160].macCellId = 2
**.ue[160].masterId = 2
**.ue[161].macCellId = 2
**.ue[161].masterId = 2
**.ue[162].macCellId = 2
**.ue[162].masterId = 2
**.ue[163].macCellId = 2
**.ue[163].masterId = 2
**.ue[164].macCellId = 2
**.ue[164].masterId = 2
**.ue[165].macCellId = 2
**.ue[165].masterId = 2
**.ue[166].macCellId = 2
**.ue[166].masterId = 2
**.ue[167].macCellId = 2
**.ue[167].masterId = 2
**.ue[168].macCellId = 2
**.ue[168].masterId = 2
**.ue[169].macCellId = 2
**.ue[169].masterId = 2
**.ue[170].macCellId = 2
**.ue[170].masterId = 2
**.ue[171].macCellId = 2
**.ue[171].masterId = 2
**.ue[172].macCellId = 2
**.ue[172].masterId = 2
**.ue[173].macCellId = 2
**.ue[173].masterId = 2
**.ue[174].macCellId = 2
**.ue[174].masterId = 2
**.ue[175].macCellId = 2
**.ue[175].masterId = 2
**.ue[176].macCellId = 2
**.ue[176].masterId = 2
**.ue[177].macCellId = 2
**.ue[177].masterId = 2
**.ue[178].macCellId = 2
**.ue[178].masterId = 2
**.ue[179].macCellId = 2
**.ue[179].masterId = 2
**.ue[180].macCellId = 2
**.ue[180].masterId = 2
**.ue[181].macCellId = 2
**.ue[181].masterId = 2
**.ue[182].macCellId = 2
**.ue[182].masterId = 2
**.ue[183].macCellId = 2
**.ue[183].masterId = 2
**.ue[184].macCellId = 2
**.ue[184].masterId = 2
**.ue[185].macCellId = 2
**.ue[185].masterId = 2
**.ue[186].macCellId = 2
**.ue[186].masterId = 2
**.ue[187].macCellId = 2
**.ue[187].masterId = 2
**.ue[188].macCellId = 2
**.ue[188].masterId = 2
**.ue[189].macCellId = 2
**.ue[189].masterId = 2
**.ue[190].macCellId = 2
**.ue[190].masterId = 2
**.ue[191].macCellId = 2
**.ue[191].masterId = 2
**.ue[192].macCellId = 2
**.ue[192].masterId = 2
**.ue[193].macCellId = 2
**.ue[193].masterId = 2
**.ue[194].macCellId = 2
**.ue[194].masterId = 2
**.ue[195].macCellId = 2
**.ue[195].masterId = 2
**.ue[196].macCellId = 2
**.ue[196].masterId = 2
**.ue[197].macCellId = 2
**.ue[197].masterId = 2
**.ue[198].macCellId = 2
**.ue[198].masterId = 2
**.ue[199].macCellId = 2
**.ue[199].masterId = 2

# Scheduler
**.schedulingDisciplineUl = ${sched= "MAXCI", "DRR", "PF", "ALLOCATOR_BESTFIT"}
**.schedulingDisciplineDl = ${sched}

############### Mobility ###############

# eNodeB
**.eNB.lteNic.channelModel.scenario = "URBAN_MACROCELL"

# Microcell
**.microCell.lteNic.channelModel.scenario = "URBAN_MICROCELL"

# UEs
**.ue[0].lteNic.channelModel.scenario = "URBAN_MACROCELL"
**.ue[1].lteNic.channelModel.scenario = "URBAN_MACROCELL"
**.ue[2].lteNic.channelModel.scenario = "URBAN_MACROCELL"
**.ue[3].lteNic.channelModel.scenario = "URBAN_MACROCELL"
**.ue[4].lteNic.channelModel.scenario = "URBAN_MACROCELL"
**.ue[5].lteNic.channelModel.scenario = "URBAN_MACROCELL"
**.ue[6].lteNic.channelModel.scenario = "URBAN_MACROCELL"
**.ue[7].lteNic.channelModel.scenario = "URBAN_MACROCELL"
**.ue[8].lteNic.channelModel.scenario = "URBAN_MACROCELL"
**.ue[9].lteNic.channelModel.scenario = "URBAN_MACROCELL"
**.ue[10].lteNic.channelModel.scenario = "URBAN_MACROCELL"
**.ue[11].lteNic.channelModel.scenario = "URBAN_MACROCELL"
**.ue[12].lteNic.channelModel.scenario = "URBAN_MACROCELL"
**.ue[13].lteNic.channelModel.scenario = "URBAN_MACROCELL"
**.ue[14].lteNic.channelModel.scenario = "URBAN_MACROCELL"
**.ue[15].lteNic.channelModel.scenario = "URBAN_MACROCELL"
**.ue[16].lteNic.channelModel.scenario = "URBAN_MACROCELL"
**.ue[17].lteNic.channelModel.scenario = "URBAN_MACROCELL"
**.ue[18].lteNic.channelModel.scenario = "URBAN_MACROCELL"
**.ue[19].lteNic.channelModel.scenario = "URBAN_MACROCELL"
**.ue[20].lteNic.channelModel.scenario = "URBAN_MACROCELL"
**.ue[21].lteNic.channelModel.scenario = "URBAN_MACROCELL"
**.ue[22].lteNic.channelModel.scenario = "URBAN_MACROCELL"
**.ue[23].lteNic.channelModel.scenario = "URBAN_MACROCELL"
**.ue[24].lteNic.channelModel.scenario = "URBAN_MACROCELL"
**.ue[25].lteNic.channelModel.scenario = "URBAN_MACROCELL"
**.ue[26].lteNic.channelModel.scenario = "URBAN_MACROCELL"
**.ue[27].lteNic.channelModel.scenario = "URBAN_MACROCELL"
**.ue[28].lteNic.channelModel.scenario = "URBAN_MACROCELL"
**.ue[29].lteNic.channelModel.scenario = "URBAN_MACROCELL"
**.ue[30].lteNic.channelModel.scenario = "URBAN_MACROCELL"
**.ue[31].lteNic.channelModel.scenario = "URBAN_MACROCELL"
**.ue[32].lteNic.channelModel.scenario = "URBAN_MACROCELL"
**.ue[33].lteNic.channelModel.scenario = "URBAN_MACROCELL"
**.ue[34].lteNic.channelModel.scenario = "URBAN_MACROCELL"
**.ue[35].lteNic.channelModel.scenario = "URBAN_MACROCELL"
**.ue[36].lteNic.channelModel.scenario = "URBAN_MACROCELL"
**.ue[37].lteNic.channelModel.scenario = "URBAN_MACROCELL"
**.ue[38].lteNic.channelModel.scenario = "URBAN_MACROCELL"
**.ue[39].lteNic.channelModel.scenario = "URBAN_MACROCELL"
**.ue[40].lteNic.channelModel.scenario = "URBAN_MACROCELL"
**.ue[41].lteNic.channelModel.scenario = "URBAN_MACROCELL"
**.ue[42].lteNic.channelModel.scenario = "URBAN_MACROCELL"
**.ue[43].lteNic.channelModel.scenario = "URBAN_MACROCELL"
**.ue[44].lteNic.channelModel.scenario = "URBAN_MACROCELL"
**.ue[45].lteNic.channelModel.scenario = "URBAN_MACROCELL"
**.ue[46].lteNic.channelModel.scenario = "URBAN_MACROCELL"
**.ue[47].lteNic.channelModel.scenario = "URBAN_MACROCELL"
**.ue[48].lteNic.channelModel.scenario = "URBAN_MACROCELL"
**.ue[49].lteNic.channelModel.scenario = "URBAN_MACROCELL"
**.ue[50].lteNic.channelModel.scenario = "URBAN_MACROCELL"
**.ue[51].lteNic.channelModel.scenario = "URBAN_MACROCELL"
**.ue[52].lteNic.channelModel.scenario = "URBAN_MACROCELL"
**.ue[53].lteNic.channelModel.scenario = "URBAN_MACROCELL"
**.ue[54].lteNic.channelModel.scenario = "URBAN_MACROCELL"
**.ue[55].lteNic.channelModel.scenario = "URBAN_MACROCELL"
**.ue[56].lteNic.channelModel.scenario = "URBAN_MACROCELL"
**.ue[57].lteNic.channelModel.scenario = "URBAN_MACROCELL"
**.ue[58].lteNic.channelModel.scenario = "URBAN_MACROCELL"
**.ue[59].lteNic.channelModel.scenario = "URBAN_MACROCELL"
**.ue[60].lteNic.channelModel.scenario = "URBAN_MACROCELL"
**.ue[61].lteNic.channelModel.scenario = "URBAN_MACROCELL"
**.ue[62].lteNic.channelModel.scenario = "URBAN_MACROCELL"
**.ue[63].lteNic.channelModel.scenario = "URBAN_MACROCELL"
**.ue[64].lteNic.channelModel.scenario = "URBAN_MACROCELL"
**.ue[65].lteNic.channelModel.scenario = "URBAN_MACROCELL"
**.ue[66].lteNic.channelModel.scenario = "URBAN_MACROCELL"
**.ue[67].lteNic.channelModel.scenario = "URBAN_MACROCELL"
**.ue[68].lteNic.channelModel.scenario = "URBAN_MACROCELL"
**.ue[69].lteNic.channelModel.scenario = "URBAN_MACROCELL"
**.ue[70].lteNic.channelModel.scenario = "URBAN_MACROCELL"
**.ue[71].lteNic.channelModel.scenario = "URBAN_MACROCELL"
**.ue[72].lteNic.channelModel.scenario = "URBAN_MACROCELL"
**.ue[73].lteNic.channelModel.scenario = "URBAN_MICROCELL"
**.ue[74].lteNic.channelModel.scenario = "URBAN_MICROCELL"
**.ue[75].lteNic.channelModel.scenario = "URBAN_MICROCELL"
**.ue[76].lteNic.channelModel.scenario = "URBAN_MICROCELL"
**.ue[77].lteNic.channelModel.scenario = "URBAN_MICROCELL"
**.ue[78].lteNic.channelModel.scenario = "URBAN_MICROCELL"
**.ue[79].lteNic.channelModel.scenario = "URBAN_MICROCELL"
**.ue[80].lteNic.channelModel.scenario = "URBAN_MICROCELL"
**.ue[81].lteNic.channelModel.scenario = "URBAN_MICROCELL"
**.ue[82].lteNic.channelModel.scenario = "URBAN_MICROCELL"
**.ue[83].lteNic.channelModel.scenario = "URBAN_MICROCELL"
**.ue[84].lteNic.channelModel.scenario = "URBAN_MICROCELL"
**.ue[85].lteNic.channelModel.scenario = "URBAN_MICROCELL"
**.ue[86].lteNic.channelModel.scenario = "URBAN_MICROCELL"
**.ue[87].lteNic.channelModel.scenario = "URBAN_MICROCELL"
**.ue[88].lteNic.channelModel.scenario = "URBAN_MICROCELL"
**.ue[89].lteNic.channelModel.scenario = "URBAN_MICROCELL"
**.ue[90].lteNic.channelModel.scenario = "URBAN_MICROCELL"
**.ue[91].lteNic.channelModel.scenario = "URBAN_MICROCELL"
**.ue[92].lteNic.channelModel.scenario = "URBAN_MICROCELL"
**.ue[93].lteNic.channelModel.scenario = "URBAN_MICROCELL"
**.ue[94].lteNic.channelModel.scenario = "URBAN_MICROCELL"
**.ue[95].lteNic.channelModel.scenario = "URBAN_MICROCELL"
**.ue[96].lteNic.channelModel.scenario = "URBAN_MICROCELL"
**.ue[97].lteNic.channelModel.scenario = "URBAN_MICROCELL"
**.ue[98].lteNic.channelModel.scenario = "URBAN_MICROCELL"
**.ue[99].lteNic.channelModel.scenario = "URBAN_MICROCELL"
**.ue[100].lteNic.channelModel.scenario = "URBAN_MICROCELL"
**.ue[101].lteNic.channelModel.scenario = "URBAN_MICROCELL"
**.ue[102].lteNic.channelModel.scenario = "URBAN_MICROCELL"
**.ue[103].lteNic.channelModel.scenario = "URBAN_MICROCELL"
**.ue[104].lteNic.channelModel.scenario = "URBAN_MICROCELL"
**.ue[105].lteNic.channelModel.scenario = "URBAN_MICROCELL"
**.ue[106].lteNic.channelModel.scenario = "URBAN_MICROCELL"
**.ue[107].lteNic.channelModel.scenario = "URBAN_MICROCELL"
**.ue[108].lteNic.channelModel.scenario = "URBAN_MICROCELL"
**.ue[109].lteNic.channelModel.scenario = "URBAN_MICROCELL"
**.ue[110].lteNic.channelModel.scenario = "URBAN_MICROCELL"
**.ue[111].lteNic.channelModel.scenario = "URBAN_MICROCELL"
**.ue[112].lteNic.channelModel.scenario = "URBAN_MICROCELL"
**.ue[113].lteNic.channelModel.scenario = "URBAN_MICROCELL"
**.ue[114].lteNic.channelModel.scenario = "URBAN_MICROCELL"
**.ue[115].lteNic.channelModel.scenario = "URBAN_MICROCELL"
**.ue[116].lteNic.channelModel.scenario = "URBAN_MICROCELL"
**.ue[117].lteNic.channelModel.scenario = "URBAN_MICROCELL"
**.ue[118].lteNic.channelModel.scenario = "URBAN_MICROCELL"
**.ue[119].lteNic.channelModel.scenario = "URBAN_MICROCELL"
**.ue[120].lteNic.channelModel.scenario = "URBAN_MICROCELL"
**.ue[121].lteNic.channelModel.scenario = "URBAN_MICROCELL"
**.ue[122].lteNic.channelModel.scenario = "URBAN_MICROCELL"
**.ue[123].lteNic.channelModel.scenario = "URBAN_MICROCELL"
**.ue[124].lteNic.channelModel.scenario = "URBAN_MICROCELL"
**.ue[125].lteNic.channelModel.scenario = "URBAN_MICROCELL"
**.ue[126].lteNic.channelModel.scenario = "URBAN_MICROCELL"
**.ue[127].lteNic.channelModel.scenario = "URBAN_MICROCELL"
**.ue[128].lteNic.channelModel.scenario = "URBAN_MICROCELL"
**.ue[129].lteNic.channelModel.scenario = "URBAN_MICROCELL"
**.ue[130].lteNic.channelModel.scenario = "URBAN_MICROCELL"
**.ue[131].lteNic.channelModel.scenario = "URBAN_MICROCELL"
**.ue[132].lteNic.channelModel.scenario = "URBAN_MICROCELL"
**.ue[133].lteNic.channelModel.scenario = "URBAN_MICROCELL"
**.ue[134].lteNic.channelModel.scenario = "URBAN_MICROCELL"
**.ue[135].lteNic.channelModel.scenario = "URBAN_MICROCELL"
**.ue[136].lteNic.channelModel.scenario = "URBAN_MICROCELL"
**.ue[137].lteNic.channelModel.scenario = "URBAN_MICROCELL"
**.ue[138].lteNic.channelModel.scenario = "URBAN_MICROCELL"
**.ue[139].lteNic.channelModel.scenario = "URBAN_MICROCELL"
**.ue[140].lteNic.channelModel.scenario = "URBAN_MICROCELL"
**.ue[141].lteNic.channelModel.scenario = "URBAN_MICROCELL"
**.ue[142].lteNic.channelModel.scenario = "URBAN_MICROCELL"
**.ue[143].lteNic.channelModel.scenario = "URBAN_MICROCELL"
**.ue[144].lteNic.channelModel.scenario = "URBAN_MICROCELL"
**.ue[145].lteNic.channelModel.scenario = "URBAN_MICROCELL"
**.ue[146].lteNic.channelModel.scenario = "URBAN_MICROCELL"
**.ue[147].lteNic.channelModel.scenario = "URBAN_MICROCELL"
**.ue[148].lteNic.channelModel.scenario = "URBAN_MICROCELL"
**.ue[149].lteNic.channelModel.scenario = "URBAN_MICROCELL"
**.ue[150].lteNic.channelModel.scenario = "URBAN_MICROCELL"
**.ue[151].lteNic.channelModel.scenario = "URBAN_MICROCELL"
**.ue[152].lteNic.channelModel.scenario = "URBAN_MICROCELL"
**.ue[153].lteNic.channelModel.scenario = "URBAN_MICROCELL"
**.ue[154].lteNic.channelModel.scenario = "URBAN_MICROCELL"
**.ue[155].lteNic.channelModel.scenario = "URBAN_MICROCELL"
**.ue[156].lteNic.channelModel.scenario = "URBAN_MICROCELL"
**.ue[157].lteNic.channelModel.scenario = "URBAN_MICROCELL"
**.ue[158].lteNic.channelModel.scenario = "URBAN_MICROCELL"
**.ue[159].lteNic.channelModel.scenario = "URBAN_MICROCELL"
**.ue[160].lteNic.channelModel.scenario = "URBAN_MICROCELL"
**.ue[161].lteNic.channelModel.scenario = "URBAN_MICROCELL"
**.ue[162].lteNic.channelModel.scenario = "URBAN_MICROCELL"
**.ue[163].lteNic.channelModel.scenario = "URBAN_MICROCELL"
**.ue[164].lteNic.channelModel.scenario = "URBAN_MICROCELL"
**.ue[165].lteNic.channelModel.scenario = "URBAN_MICROCELL"
**.ue[166].lteNic.channelModel.scenario = "URBAN_MICROCELL"
**.ue[167].lteNic.channelModel.scenario = "URBAN_MICROCELL"
**.ue[168].lteNic.channelModel.scenario = "URBAN_MICROCELL"
**.ue[169].lteNic.channelModel.scenario = "URBAN_MICROCELL"
**.ue[170].lteNic.channelModel.scenario = "URBAN_MICROCELL"
**.ue[171].lteNic.channelModel.scenario = "URBAN_MICROCELL"
**.ue[172].lteNic.channelModel.scenario = "URBAN_MICROCELL"
**.ue[173].lteNic.channelModel.scenario = "URBAN_MICROCELL"
**.ue[174].lteNic.channelModel.scenario = "URBAN_MICROCELL"
**.ue[175].lteNic.channelModel.scenario = "URBAN_MICROCELL"
**.ue[176].lteNic.channelModel.scenario = "URBAN_MICROCELL"
**.ue[177].lteNic.channelModel.scenario = "URBAN_MICROCELL"
**.ue[178].lteNic.channelModel.scenario = "URBAN_MICROCELL"
**.ue[179].lteNic.channelModel.scenario = "URBAN_MICROCELL"
**.ue[180].lteNic.channelModel.scenario = "URBAN_MICROCELL"
**.ue[181].lteNic.channelModel.scenario = "URBAN_MICROCELL"
**.ue[182].lteNic.channelModel.scenario = "URBAN_MICROCELL"
**.ue[183].lteNic.channelModel.scenario = "URBAN_MICROCELL"
**.ue[184].lteNic.channelModel.scenario = "URBAN_MICROCELL"
**.ue[185].lteNic.channelModel.scenario = "URBAN_MICROCELL"
**.ue[186].lteNic.channelModel.scenario = "URBAN_MICROCELL"
**.ue[187].lteNic.channelModel.scenario = "URBAN_MICROCELL"
**.ue[188].lteNic.channelModel.scenario = "URBAN_MICROCELL"
**.ue[189].lteNic.channelModel.scenario = "URBAN_MICROCELL"
**.ue[190].lteNic.channelModel.scenario = "URBAN_MICROCELL"
**.ue[191].lteNic.channelModel.scenario = "URBAN_MICROCELL"
**.ue[192].lteNic.channelModel.scenario = "URBAN_MICROCELL"
**.ue[193].lteNic.channelModel.scenario = "URBAN_MICROCELL"
**.ue[194].lteNic.channelModel.scenario = "URBAN_MICROCELL"
**.ue[195].lteNic.channelModel.scenario = "URBAN_MICROCELL"
**.ue[196].lteNic.channelModel.scenario = "URBAN_MICROCELL"
**.ue[197].lteNic.channelModel.scenario = "URBAN_MICROCELL"
**.ue[198].lteNic.channelModel.scenario = "URBAN_MICROCELL"
**.ue[199].lteNic.channelModel.scenario = "URBAN_MICROCELL"

############### Mobility ###############

# eNodeB
*.eNB.mobility.initialX = 500m
*.eNB.mobility.initialY = 500m
*.eNB.mobility.initialZ = 0m
*.eNB.mobility.initFromDisplayString = false
*.eNB.mobility.constraintAreaMaxX = inf m
*.eNB.mobility.constraintAreaMaxY = inf m
*.eNB.mobility.constraintAreaMaxZ = inf m
*.eNB.mobility.constraintAreaMinX = -inf m
*.eNB.mobility.constraintAreaMinY = -inf m
*.eNB.mobility.constraintAreaMinZ = -inf m

# UEs

*.ue[*].mobilityType = "StationaryMobility"
*.ue[0].mobility.initialX = 672.4963167430603m
*.ue[0].mobility.initialY = 734.8173507369413m
*.ue[0].mobility.initialZ = 0.0m
*.ue[1].mobility.initialX = 577.8360716991009m
*.ue[1].mobility.initialY = 147.6944888336575m
*.ue[1].mobility.initialZ = 0.0m
*.ue[2].mobility.initialX = 608.4383101560509m
*.ue[2].mobility.initialY = 121.18712141043937m
*.ue[2].mobility.initialZ = 0.0m
*.ue[3].mobility.initialX = 383.2392459702686m
*.ue[3].mobility.initialY = 181.41266300769598m
*.ue[3].mobility.initialZ = 0.0m
*.ue[4].mobility.initialX = 428.88427899569194m
*.ue[4].mobility.initialY = 484.73466990708965m
*.ue[4].mobility.initialZ = 0.0m
*.ue[5].mobility.initialX = 801.9988877525851m
*.ue[5].mobility.initialY = 556.4201023420853m
*.ue[5].mobility.initialZ = 0.0m
*.ue[6].mobility.initialX = 338.9537014864984m
*.ue[6].mobility.initialY = 458.9724962069372m
*.ue[6].mobility.initialZ = 0.0m
*.ue[7].mobility.initialX = 276.47938787153765m
*.ue[7].mobility.initialY = 765.9621545416394m
*.ue[7].mobility.initialZ = 0.0m
*.ue[8].mobility.initialX = 828.1836200755748m
*.ue[8].mobility.initialY = 529.5179028965631m
*.ue[8].mobility.initialZ = 0.0m
*.ue[9].mobility.initialX = 236.34088733383823m
*.ue[9].mobility.initialY = 279.4249074887035m
*.ue[9].mobility.initialZ = 0.0m
*.ue[10].mobility.initialX = 784.1465061833453m
*.ue[10].mobility.initialY = 374.90842308631574m
*.ue[10].mobility.initialZ = 0.0m
*.ue[11].mobility.initialX = 253.74001344448615m
*.ue[11].mobility.initialY = 172.96383741380635m
*.ue[11].mobility.initialZ = 0.0m
*.ue[12].mobility.initialX = 497.4149567788837m
*.ue[12].mobility.initialY = 326.7913682554005m
*.ue[12].mobility.initialZ = 0.0m
*.ue[13].mobility.initialX = 642.1899870511744m
*.ue[13].mobility.initialY = 573.0540488127767m
*.ue[13].mobility.initialZ = 0.0m
*.ue[14].mobility.initialX = 255.65122799157268m
*.ue[14].mobility.initialY = 776.5758112896942m
*.ue[14].mobility.initialZ = 0.0m
*.ue[15].mobility.initialX = 504.6587079309385m
*.ue[15].mobility.initialY = 860.9485782443896m
*.ue[15].mobility.initialZ = 0.0m
*.ue[16].mobility.initialX = 225.2064824732591m
*.ue[16].mobility.initialY = 441.449727141079m
*.ue[16].mobility.initialZ = 0.0m
*.ue[17].mobility.initialX = 668.4235442282686m
*.ue[17].mobility.initialY = 604.8348439722814m
*.ue[17].mobility.initialZ = 0.0m
*.ue[18].mobility.initialX = 353.9457213474366m
*.ue[18].mobility.initialY = 660.6420473753093m
*.ue[18].mobility.initialZ = 0.0m
*.ue[19].mobility.initialX = 314.7505518356262m
*.ue[19].mobility.initialY = 181.91661946452928m
*.ue[19].mobility.initialZ = 0.0m
*.ue[20].mobility.initialX = 169.07383484520744m
*.ue[20].mobility.initialY = 590.1494471620396m
*.ue[20].mobility.initialZ = 0.0m
*.ue[21].mobility.initialX = 534.1629204886785m
*.ue[21].mobility.initialY = 780.3282985081719m
*.ue[21].mobility.initialZ = 0.0m
*.ue[22].mobility.initialX = 710.2918747865496m
*.ue[22].mobility.initialY = 462.3713131577877m
*.ue[22].mobility.initialZ = 0.0m
*.ue[23].mobility.initialX = 599.2544227691167m
*.ue[23].mobility.initialY = 852.9997069589398m
*.ue[23].mobility.initialZ = 0.0m
*.ue[24].mobility.initialX = 165.97181257561334m
*.ue[24].mobility.initialY = 271.55403097335477m
*.ue[24].mobility.initialZ = 0.0m
*.ue[25].mobility.initialX = 386.52085941655173m
*.ue[25].mobility.initialY = 746.7370191807353m
*.ue[25].mobility.initialZ = 0.0m
*.ue[26].mobility.initialX = 648.1679917521654m
*.ue[26].mobility.initialY = 853.356905330764m
*.ue[26].mobility.initialZ = 0.0m
*.ue[27].mobility.initialX = 299.0432816680075m
*.ue[27].mobility.initialY = 396.82703610512146m
*.ue[27].mobility.initialZ = 0.0m
*.ue[28].mobility.initialX = 132.7366899887508m
*.ue[28].mobility.initialY = 579.1951290426118m
*.ue[28].mobility.initialZ = 0.0m
*.ue[29].mobility.initialX = 749.199664753389m
*.ue[29].mobility.initialY = 684.6416901333731m
*.ue[29].mobility.initialZ = 0.0m
*.ue[30].mobility.initialX = 646.3484660366653m
*.ue[30].mobility.initialY = 453.7210444162891m
*.ue[30].mobility.initialZ = 0.0m
*.ue[31].mobility.initialX = 310.1305912021002m
*.ue[31].mobility.initialY = 183.45255730610842m
*.ue[31].mobility.initialZ = 0.0m
*.ue[32].mobility.initialX = 477.23513532922317m
*.ue[32].mobility.initialY = 327.489670921609m
*.ue[32].mobility.initialZ = 0.0m
*.ue[33].mobility.initialX = 361.984875480861m
*.ue[33].mobility.initialY = 656.7451710569292m
*.ue[33].mobility.initialZ = 0.0m
*.ue[34].mobility.initialX = 222.52453027608925m
*.ue[34].mobility.initialY = 424.41149330657925m
*.ue[34].mobility.initialZ = 0.0m
*.ue[35].mobility.initialX = 682.477704457282m
*.ue[35].mobility.initialY = 510.37190863293864m
*.ue[35].mobility.initialZ = 0.0m
*.ue[36].mobility.initialX = 268.81621933993904m
*.ue[36].mobility.initialY = 460.54009011286956m
*.ue[36].mobility.initialZ = 0.0m
*.ue[37].mobility.initialX = 775.5896529765535m
*.ue[37].mobility.initialY = 558.6746932652752m
*.ue[37].mobility.initialZ = 0.0m
*.ue[38].mobility.initialX = 350.2320116949872m
*.ue[38].mobility.initialY = 411.5165112357967m
*.ue[38].mobility.initialZ = 0.0m
*.ue[39].mobility.initialX = 508.204716898153m
*.ue[39].mobility.initialY = 409.03218775986664m
*.ue[39].mobility.initialZ = 0.0m
*.ue[40].mobility.initialX = 702.5447257076748m
*.ue[40].mobility.initialY = 504.892388647469m
*.ue[40].mobility.initialZ = 0.0m
*.ue[41].mobility.initialX = 442.1901816996779m
*.ue[41].mobility.initialY = 892.0218220208747m
*.ue[41].mobility.initialZ = 0.0m
*.ue[42].mobility.initialX = 871.9588927316438m
*.ue[42].mobility.initialY = 411.93226028031654m
*.ue[42].mobility.initialZ = 0.0m
*.ue[43].mobility.initialX = 264.3650155807462m
*.ue[43].mobility.initialY = 425.93378587675676m
*.ue[43].mobility.initialZ = 0.0m
*.ue[44].mobility.initialX = 645.5546669905177m
*.ue[44].mobility.initialY = 718.002065276532m
*.ue[44].mobility.initialZ = 0.0m
*.ue[45].mobility.initialX = 464.49987572858953m