#Function: ilp_sliced_ini
#Parameters:
#   filename: ../Network_CCOpMv/_5G/simulations/chosen_seed_213/micro_power_40/ilp_fixed_sliced_10.ini
#   seed: 213
#   size_y: 4000
#   size_x: 4000
#   size_sector: 400
#   n_macros: 1
#   min_sinr: 10
#   repetitions: 2
#   multi_carriers: False
#   slice_time: 1
#   is_micro: True
#   p_size: 1428
#   app: video
#   target_f: 10
#   extra_config_name: video
#   result_dir: Solutions/chosen_seed_213/micro_power_40
#   varying: False
#   network_name: ILPFixedNet10
#   net_dir: _5G/networks/chosen_seed_213/micro_power_40
#   cmdenv_config: True
#   micro_power: 40
#   xml_filename: ilp_move_users-213.sna
#   num_bands: [100]
#Extra = Using 1 macros with 60 ues each. Slicing 10s in 10 different simulations. Using microcells.
[General]
sim-time-limit = 10s

############### Statistics ###############
output-scalar-file = ${resultdir}/${configname}/${repetition}.sca
output-vector-file = ${resultdir}/${configname}/${repetition}.vec
**.vector-recording = false
eventlog-file = ${resultdir}/${configname}/${repetition}.elog
seed-set = ${repetition}

[Config ilp_fixed_sliced_10_video]
network = _5G.networks.chosen_seed_213.micro_power_40.ILPFixedNet10
sim-time-limit = 1s
repeat = 2
seed-set = ${repetition}
num-rngs = 2
seed-1-mt = 213

############### Outputs ###############
**.eNB*.cellularNic.channelModel[*].idRcvdSinr:vector.vector-recording = true
**.eNB*.cellularNic.channelModel[*].rcvdSinr:vector.vector-recording = true
**.app[*].throughput:vector.vector-recording = true
**.app[*].endToEndDelay:vector.vector-recording = true
output-scalar-file = ${resultdir}/${configname}/10-${RBs}-${repetition}-${Slice}.sca
output-vector-file = ${resultdir}/${configname}/10-${RBs}-${repetition}-${Slice}.vec
**.vector-recording = false
eventlog-file = ${resultdir}/${configname}/10-${RBs}-${repetition}-${Slice}.elog

############### Cmdenv ###############
cmdenv-performance-display = false
cmdenv-redirect-output = true
cmdenv-output-file = ${resultdir}/${configname}-cmdout/10-${RBs}-${repetition}-${Slice}.out

############### Snapshots ###############
snapshot-file = ../../../Functions/${configname}-RBs_${RBs}-Slice_${Slice}-10-${repetition}.sna
**.snapshotter.snapshot = false
**.snapshotter.delay = 1.0

############### Transmission Power ###############
**.ueTxPower = 24
**.eNodeBTxPower = 46
**.microTxPower = 40
**.cellularNic.phy.txDirection = "OMNI"

############### Channel Control ###############
**.numComponentCarriers = 1
*.carrierAggregation.componentCarrier[0].carrierFrequency = 0.7GHz

############### Channel Model ###############
**.cellularNic.LteChannelModelType = "MoreInfoChannelModel"
**.cellularNic.channelModel[*].building_height = 20
**.cellularNic.channelModel[*].nodeb_height = 18
**.cellularNic.channelModel[*].ue_height = 1.5
**.cellularNic.channelModel[*].street_wide = 20
**.cellularNic.channelModel[*].fading_type = "JAKES"
**.cellularNic.channelModel[*].extCell_interference = false
**.cellularNic.channelModel[*].antennGainEnB = 18
**.cellularNic.channelModel[*].antennGainMicro = 5
**.cellularNic.channelModel[*].antennaGainUe = -1
**.cellularNic.channelModel[*].bs_noise_figure = 9
**.cellularNic.channelModel[*].cable_loss = 2
**.cellularNic.channelModel[*].componentCarrierIndex = 0
**.cellularNic.channelModel[*].correlation_distance = 50
**.cellularNic.channelModel[*].d2d_interference = true
**.cellularNic.channelModel[*].delay_rms = 363e-9
**.cellularNic.channelModel[*].downlink_interference = false
**.cellularNic.channelModel[*].dynamic_los = false
**.cellularNic.channelModel[*].enable_extCell_los = true
**.cellularNic.channelModel[*].fading = true
**.cellularNic.channelModel[*].fading_paths = 6
**.cellularNic.channelModel[*].fixed_los = false
**.cellularNic.channelModel[*].harqReduction = 0.2
**.cellularNic.channelModel[*].inside_building = false
**.cellularNic.channelModel[*].lambdaMaxTh = 0.2
**.cellularNic.channelModel[*].lambdaMinTh = 0.02
**.cellularNic.channelModel[*].lambdaRatioTh = 20
**.cellularNic.channelModel[*].rsrqScale = 1.0
**.cellularNic.channelModel[*].rsrqShift = 22
**.cellularNic.channelModel[*].shadowing = true
**.cellularNic.channelModel[*].targetBler = 0.01
**.cellularNic.channelModel[*].thermalNoise = -104.5
**.cellularNic.channelModel[*].tolerateMaxDistViolation = true
**.cellularNic.channelModel[*].ue_noise_figure = 7
**.cellularNic.channelModel[*].uplink_interference = false
**.cellularNic.channelModel[*].useRsrqFromLog = false
**.cellularNic.channelModel[*].useTorus = false
**.cellularNic.channelModel[*].num_slice = ${Slice= 0, 1, 2, 3, 4, 5, 6, 7, 8, 9}
**.cellularNic.channelModel[*].num_enbs = ${NumEnbs= 1, 3, 3, 3, 3, 3, 3, 3, 3, 3 ! Slice}

############### Resource Blocks ###############
**.numBands = ${RBs= 100}

############### eNBs ###############
**.eNB0.cellInfo.microCell = true
**.eNB1.cellInfo.microCell = true
**.eNB2.cellInfo.microCell = true

############### UEs ###############
**.numUe = 60

# Conecting UEs to eNodeB
**.ue[0].macCellId = ${1, 1, 2, 1, 1, 1, 1, 2, 2, 2 ! Slice}
**.ue[0].masterId = ${1, 1, 2, 1, 1, 1, 1, 2, 2, 2 ! Slice}
**.ue[1].macCellId = ${1, 1, 1, 1, 1, 3, 2, 1, 1, 1 ! Slice}
**.ue[1].masterId = ${1, 1, 1, 1, 1, 3, 2, 1, 1, 1 ! Slice}
**.ue[2].macCellId = ${1, 1, 2, 1, 3, 1, 2, 1, 1, 2 ! Slice}
**.ue[2].masterId = ${1, 1, 2, 1, 3, 1, 2, 1, 1, 2 ! Slice}
**.ue[3].macCellId = ${1, 2, 1, 2, 3, 1, 2, 2, 3, 1 ! Slice}
**.ue[3].masterId = ${1, 2, 1, 2, 3, 1, 2, 2, 3, 1 ! Slice}
**.ue[4].macCellId = ${1, 3, 1, 1, 1, 2, 2, 1, 2, 1 ! Slice}
**.ue[4].masterId = ${1, 3, 1, 1, 1, 2, 2, 1, 2, 1 ! Slice}
**.ue[5].macCellId = ${1, 1, 3, 3, 2, 2, 3, 2, 1, 1 ! Slice}
**.ue[5].masterId = ${1, 1, 3, 3, 2, 2, 3, 2, 1, 1 ! Slice}
**.ue[6].macCellId = ${1, 1, 2, 3, 1, 2, 1, 1, 2, 2 ! Slice}
**.ue[6].masterId = ${1, 1, 2, 3, 1, 2, 1, 1, 2, 2 ! Slice}
**.ue[7].macCellId = ${1, 1, 1, 3, 2, 2, 3, 1, 2, 2 ! Slice}
**.ue[7].masterId = ${1, 1, 1, 3, 2, 2, 3, 1, 2, 2 ! Slice}
**.ue[8].macCellId = ${1, 1, 3, 3, 3, 3, 2, 1, 1, 1 ! Slice}
**.ue[8].masterId = ${1, 1, 3, 3, 3, 3, 2, 1, 1, 1 ! Slice}
**.ue[9].macCellId = ${1, 1, 1, 1, 1, 2, 3, 3, 2, 2 ! Slice}
**.ue[9].masterId = ${1, 1, 1, 1, 1, 2, 3, 3, 2, 2 ! Slice}
**.ue[10].macCellId = ${1, 3, 1, 2, 2, 1, 3, 1, 1, 2 ! Slice}
**.ue[10].masterId = ${1, 3, 1, 2, 2, 1, 3, 1, 1, 2 ! Slice}
**.ue[11].macCellId = ${1, 2, 1, 3, 2, 1, 1, 2, 1, 2 ! Slice}
**.ue[11].masterId = ${1, 2, 1, 3, 2, 1, 1, 2, 1, 2 ! Slice}
**.ue[12].macCellId = ${1, 2, 2, 2, 2, 1, 1, 2, 2, 1 ! Slice}
**.ue[12].masterId = ${1, 2, 2, 2, 2, 1, 1, 2, 2, 1 ! Slice}
**.ue[13].macCellId = ${1, 2, 3, 3, 1, 2, 1, 1, 1, 3 ! Slice}
**.ue[13].masterId = ${1, 2, 3, 3, 1, 2, 1, 1, 1, 3 ! Slice}
**.ue[14].macCellId = ${1, 1, 3, 1, 1, 1, 1, 3, 1, 3 ! Slice}
**.ue[14].masterId = ${1, 1, 3, 1, 1, 1, 1, 3, 1, 3 ! Slice}
**.ue[15].macCellId = ${1, 2, 1, 2, 3, 1, 1, 3, 2, 2 ! Slice}
**.ue[15].masterId = ${1, 2, 1, 2, 3, 1, 1, 3, 2, 2 ! Slice}
**.ue[16].macCellId = ${1, 3, 2, 1, 3, 2, 1, 1, 1, 2 ! Slice}
**.ue[16].masterId = ${1, 3, 2, 1, 3, 2, 1, 1, 1, 2 ! Slice}
**.ue[17].macCellId = ${1, 2, 2, 1, 1, 2, 1, 1, 2, 1 ! Slice}
**.ue[17].masterId = ${1, 2, 2, 1, 1, 2, 1, 1, 2, 1 ! Slice}
**.ue[18].macCellId = ${1, 1, 2, 1, 2, 3, 1, 2, 1, 1 ! Slice}
**.ue[18].masterId = ${1, 1, 2, 1, 2, 3, 1, 2, 1, 1 ! Slice}
**.ue[19].macCellId = ${1, 2, 1, 2, 1, 1, 2, 1, 1, 1 ! Slice}
**.ue[19].masterId = ${1, 2, 1, 2, 1, 1, 2, 1, 1, 1 ! Slice}
**.ue[20].macCellId = ${1, 1, 2, 1, 2, 2, 2, 2, 1, 1 ! Slice}
**.ue[20].masterId = ${1, 1, 2, 1, 2, 2, 2, 2, 1, 1 ! Slice}
**.ue[21].macCellId = ${1, 1, 2, 3, 1, 1, 3, 1, 1, 2 ! Slice}
**.ue[21].masterId = ${1, 1, 2, 3, 1, 1, 3, 1, 1, 2 ! Slice}
**.ue[22].macCellId = ${1, 3, 2, 3, 1, 2, 3, 1, 1, 2 ! Slice}
**.ue[22].masterId = ${1, 3, 2, 3, 1, 2, 3, 1, 1, 2 ! Slice}
**.ue[23].macCellId = ${1, 1, 2, 3, 1, 1, 2, 3, 1, 1 ! Slice}
**.ue[23].masterId = ${1, 1, 2, 3, 1, 1, 2, 3, 1, 1 ! Slice}
**.ue[24].macCellId = ${1, 2, 2, 2, 1, 2, 1, 1, 2, 3 ! Slice}
**.ue[24].masterId = ${1, 2, 2, 2, 1, 2, 1, 1, 2, 3 ! Slice}
**.ue[25].macCellId = ${1, 3, 2, 2, 1, 1, 2, 3, 1, 1 ! Slice}
**.ue[25].masterId = ${1, 3, 2, 2, 1, 1, 2, 3, 1, 1 ! Slice}
**.ue[26].macCellId = ${1, 1, 3, 1, 3, 3, 2, 1, 2, 1 ! Slice}
**.ue[26].masterId = ${1, 1, 3, 1, 3, 3, 2, 1, 2, 1 ! Slice}
**.ue[27].macCellId = ${1, 1, 1, 1, 3, 1, 2, 3, 2, 1 ! Slice}
**.ue[27].masterId = ${1, 1, 1, 1, 3, 1, 2, 3, 2, 1 ! Slice}
**.ue[28].macCellId = ${1, 2, 2, 1, 1, 2, 3, 1, 1, 3 ! Slice}
**.ue[28].masterId = ${1, 2, 2, 1, 1, 2, 3, 1, 1, 3 ! Slice}
**.ue[29].macCellId = ${1, 1, 2, 1, 1, 1, 1, 3, 2, 1 ! Slice}
**.ue[29].masterId = ${1, 1, 2, 1, 1, 1, 1, 3, 2, 1 ! Slice}
**.ue[30].macCellId = ${1, 1, 2, 1, 2, 2, 1, 1, 1, 1 ! Slice}
**.ue[30].masterId = ${1, 1, 2, 1, 2, 2, 1, 1, 1, 1 ! Slice}
**.ue[31].macCellId = ${1, 1, 1, 3, 2, 1, 1, 1, 1, 1 ! Slice}
**.ue[31].masterId = ${1, 1, 1, 3, 2, 1, 1, 1, 1, 1 ! Slice}
**.ue[32].macCellId = ${1, 2, 1, 1, 3, 1, 2, 1, 1, 1 ! Slice}
**.ue[32].masterId = ${1, 2, 1, 1, 3, 1, 2, 1, 1, 1 ! Slice}
**.ue[33].macCellId = ${1, 2, 1, 3, 3, 1, 1, 1, 2, 1 ! Slice}
**.ue[33].masterId = ${1, 2, 1, 3, 3, 1, 1, 1, 2, 1 ! Slice}
**.ue[34].macCellId = ${1, 1, 1, 1, 1, 1, 1, 1, 2, 1 ! Slice}
**.ue[34].masterId = ${1, 1, 1, 1, 1, 1, 1, 1, 2, 1 ! Slice}
**.ue[35].macCellId = ${1, 2, 1, 1, 2, 2, 1, 2, 1, 1 ! Slice}
**.ue[35].masterId = ${1, 2, 1, 1, 2, 2, 1, 2, 1, 1 ! Slice}
**.ue[36].macCellId = ${1, 1, 1, 1, 1, 2, 2, 1, 1, 1 ! Slice}
**.ue[36].masterId = ${1, 1, 1, 1, 1, 2, 2, 1, 1, 1 ! Slice}
**.ue[37].macCellId = ${1, 2, 1, 1, 1, 1, 2, 1, 1, 3 ! Slice}
**.ue[37].masterId = ${1, 2, 1, 1, 1, 1, 2, 1, 1, 3 ! Slice}
**.ue[38].macCellId = ${1, 1, 3, 2, 1, 1, 3, 3, 1, 1 ! Slice}
**.ue[38].masterId = ${1, 1, 3, 2, 1, 1, 3, 3, 1, 1 ! Slice}
**.ue[39].macCellId = ${1, 1, 2, 3, 3, 1, 2, 1, 1, 2 ! Slice}
**.ue[39].masterId = ${1, 1, 2, 3, 3, 1, 2, 1, 1, 2 ! Slice}
**.ue[40].macCellId = ${1, 3, 2, 2, 1, 1, 2, 2, 2, 1 ! Slice}
**.ue[40].masterId = ${1, 3, 2, 2, 1, 1, 2, 2, 2, 1 ! Slice}
**.ue[41].macCellId = ${1, 1, 1, 3, 3, 3, 2, 1, 1, 2 ! Slice}
**.ue[41].masterId = ${1, 1, 1, 3, 3, 3, 2, 1, 1, 2 ! Slice}
**.ue[42].macCellId = ${1, 2, 3, 2, 2, 1, 1, 2, 1, 1 ! Slice}
**.ue[42].masterId = ${1, 2, 3, 2, 2, 1, 1, 2, 1, 1 ! Slice}
**.ue[43].macCellId = ${1, 1, 2, 2, 1, 2, 3, 3, 1, 2 ! Slice}
**.ue[43].masterId = ${1, 1, 2, 2, 1, 2, 3, 3, 1, 2 ! Slice}
**.ue[44].macCellId = ${1, 3, 1, 1, 2, 1, 1, 1, 2, 3 ! Slice}
**.ue[44].masterId = ${1, 3, 1, 1, 2, 1, 1, 1, 2, 3 ! Slice}
**.ue[45].macCellId = ${1, 1, 1, 1, 3, 1, 1, 3, 1, 2 ! Slice}
**.ue[45].masterId = ${1, 1, 1, 1, 3, 1, 1, 3, 1, 2 ! Slice}
**.ue[46].macCellId = ${1, 1, 3, 3, 1, 1, 3, 2, 1, 1 ! Slice}
**.ue[46].masterId = ${1, 1, 3, 3, 1, 1, 3, 2, 1, 1 ! Slice}
**.ue[47].macCellId = ${1, 2, 1, 2, 3, 1, 2, 1, 1, 2 ! Slice}
**.ue[47].masterId = ${1, 2, 1, 2, 3, 1, 2, 1, 1, 2 ! Slice}
**.ue[48].macCellId = ${1, 1, 3, 1, 1, 3, 1, 1, 2, 2 ! Slice}
**.ue[48].masterId = ${1, 1, 3, 1, 1, 3, 1, 1, 2, 2 ! Slice}
**.ue[49].macCellId = ${1, 1, 1, 1, 1, 2, 2, 2, 1, 2 ! Slice}
**.ue[49].masterId = ${1, 1, 1, 1, 1, 2, 2, 2, 1, 2 ! Slice}
**.ue[50].macCellId = ${1, 1, 1, 3, 2, 2, 1, 1, 2, 3 ! Slice}
**.ue[50].masterId = ${1, 1, 1, 3, 2, 2, 1, 1, 2, 3 ! Slice}
**.ue[51].macCellId = ${1, 2, 1, 1, 2, 1, 1, 1, 1, 1 ! Slice}
**.ue[51].masterId = ${1, 2, 1, 1, 2, 1, 1, 1, 1, 1 ! Slice}
**.ue[52].macCellId = ${1, 1, 2, 2, 1, 1, 3, 2, 2, 2 ! Slice}
**.ue[52].masterId = ${1, 1, 2, 2, 1, 1, 3, 2, 2, 2 ! Slice}
**.ue[53].macCellId = ${1, 1, 2, 1, 1, 2, 1, 1, 3, 2 ! Slice}
**.ue[53].masterId = ${1, 1, 2, 1, 1, 2, 1, 1, 3, 2 ! Slice}
**.ue[54].macCellId = ${1, 1, 2, 1, 1, 1, 1, 3, 2, 3 ! Slice}
**.ue[54].masterId = ${1, 1, 2, 1, 1, 1, 1, 3, 2, 3 ! Slice}
**.ue[55].macCellId = ${1, 3, 3, 3, 3, 2, 3, 2, 1, 1 ! Slice}
**.ue[55].masterId = ${1, 3, 3, 3, 3, 2, 3, 2, 1, 1 ! Slice}
**.ue[56].macCellId = ${1, 3, 2, 1, 1, 1, 3, 2, 1, 3 ! Slice}
**.ue[56].masterId = ${1, 3, 2, 1, 1, 1, 3, 2, 1, 3 ! Slice}
**.ue[57].macCellId = ${1, 3, 1, 2, 2, 2, 1, 3, 3, 2 ! Slice}
**.ue[57].masterId = ${1, 3, 1, 2, 2, 2, 1, 3, 3, 2 ! Slice}
**.ue[58].macCellId = ${1, 2, 2, 3, 1, 1, 1, 1, 1, 3 ! Slice}
**.ue[58].masterId = ${1, 2, 2, 3, 1, 1, 1, 1, 1, 3 ! Slice}
**.ue[59].macCellId = ${1, 1, 1, 2, 2, 2, 2, 1, 1, 1 ! Slice}
**.ue[59].masterId = ${1, 1, 1, 2, 2, 2, 2, 1, 1, 1 ! Slice}

# Scheduler
**.schedulingDisciplineUl = ${sched= "MAXCI"}
**.schedulingDisciplineDl = ${sched}

############### Scenario ###############

# eNodeBs
**.eNB0.cellularNic.channelModel[*].scenario = "URBAN_MICROCELL"
**.eNB1.cellularNic.channelModel[*].scenario = "URBAN_MICROCELL"
**.eNB2.cellularNic.channelModel[*].scenario = "URBAN_MICROCELL"

# UEs
**.ue[0].cellularNic.channelModel[*].scenario = "URBAN_MICROCELL"
**.ue[1].cellularNic.channelModel[*].scenario = "URBAN_MICROCELL"
**.ue[2].cellularNic.channelModel[*].scenario = "URBAN_MICROCELL"
**.ue[3].cellularNic.channelModel[*].scenario = "URBAN_MICROCELL"
**.ue[4].cellularNic.channelModel[*].scenario = "URBAN_MICROCELL"
**.ue[5].cellularNic.channelModel[*].scenario = "URBAN_MICROCELL"
**.ue[6].cellularNic.channelModel[*].scenario = "URBAN_MICROCELL"
**.ue[7].cellularNic.channelModel[*].scenario = "URBAN_MICROCELL"
**.ue[8].cellularNic.channelModel[*].scenario = "URBAN_MICROCELL"
**.ue[9].cellularNic.channelModel[*].scenario = "URBAN_MICROCELL"
**.ue[10].cellularNic.channelModel[*].scenario = "URBAN_MICROCELL"
**.ue[11].cellularNic.channelModel[*].scenario = "URBAN_MICROCELL"
**.ue[12].cellularNic.channelModel[*].scenario = "URBAN_MICROCELL"
**.ue[13].cellularNic.channelModel[*].scenario = "URBAN_MICROCELL"
**.ue[14].cellularNic.channelModel[*].scenario = "URBAN_MICROCELL"
**.ue[15].cellularNic.channelModel[*].scenario = "URBAN_MICROCELL"
**.ue[16].cellularNic.channelModel[*].scenario = "URBAN_MICROCELL"
**.ue[17].cellularNic.channelModel[*].scenario = "URBAN_MICROCELL"
**.ue[18].cellularNic.channelModel[*].scenario = "URBAN_MICROCELL"
**.ue[19].cellularNic.channelModel[*].scenario = "URBAN_MICROCELL"
**.ue[20].cellularNic.channelModel[*].scenario = "URBAN_MICROCELL"
**.ue[21].cellularNic.channelModel[*].scenario = "URBAN_MICROCELL"
**.ue[22].cellularNic.channelModel[*].scenario = "URBAN_MICROCELL"
**.ue[23].cellularNic.channelModel[*].scenario = "URBAN_MICROCELL"
**.ue[24].cellularNic.channelModel[*].scenario = "URBAN_MICROCELL"
**.ue[25].cellularNic.channelModel[*].scenario = "URBAN_MICROCELL"
**.ue[26].cellularNic.channelModel[*].scenario = "URBAN_MICROCELL"
**.ue[27].cellularNic.channelModel[*].scenario = "URBAN_MICROCELL"
**.ue[28].cellularNic.channelModel[*].scenario = "URBAN_MICROCELL"
**.ue[29].cellularNic.channelModel[*].scenario = "URBAN_MICROCELL"
**.ue[30].cellularNic.channelModel[*].scenario = "URBAN_MICROCELL"
**.ue[31].cellularNic.channelModel[*].scenario = "URBAN_MICROCELL"
**.ue[32].cellularNic.channelModel[*].scenario = "URBAN_MICROCELL"
**.ue[33].cellularNic.channelModel[*].scenario = "URBAN_MICROCELL"
**.ue[34].cellularNic.channelModel[*].scenario = "URBAN_MICROCELL"
**.ue[35].cellularNic.channelModel[*].scenario = "URBAN_MICROCELL"
**.ue[36].cellularNic.channelModel[*].scenario = "URBAN_MICROCELL"
**.ue[37].cellularNic.channelModel[*].scenario = "URBAN_MICROCELL"
**.ue[38].cellularNic.channelModel[*].scenario = "URBAN_MICROCELL"
**.ue[39].cellularNic.channelModel[*].scenario = "URBAN_MICROCELL"
**.ue[40].cellularNic.channelModel[*].scenario = "URBAN_MICROCELL"
**.ue[41].cellularNic.channelModel[*].scenario = "URBAN_MICROCELL"
**.ue[42].cellularNic.channelModel[*].scenario = "URBAN_MICROCELL"
**.ue[43].cellularNic.channelModel[*].scenario = "URBAN_MICROCELL"
**.ue[44].cellularNic.channelModel[*].scenario = "URBAN_MICROCELL"
**.ue[45].cellularNic.channelModel[*].scenario = "URBAN_MICROCELL"
**.ue[46].cellularNic.channelModel[*].scenario = "URBAN_MICROCELL"
**.ue[47].cellularNic.channelModel[*].scenario = "URBAN_MICROCELL"
**.ue[48].cellularNic.channelModel[*].scenario = "URBAN_MICROCELL"
**.ue[49].cellularNic.channelModel[*].scenario = "URBAN_MICROCELL"
**.ue[50].cellularNic.channelModel[*].scenario = "URBAN_MICROCELL"
**.ue[51].cellularNic.channelModel[*].scenario = "URBAN_MICROCELL"
**.ue[52].cellularNic.channelModel[*].scenario = "URBAN_MICROCELL"
**.ue[53].cellularNic.channelModel[*].scenario = "URBAN_MICROCELL"
**.ue[54].cellularNic.channelModel[*].scenario = "URBAN_MICROCELL"
**.ue[55].cellularNic.channelModel[*].scenario = "URBAN_MICROCELL"
**.ue[56].cellularNic.channelModel[*].scenario = "URBAN_MICROCELL"
**.ue[57].cellularNic.channelModel[*].scenario = "URBAN_MICROCELL"
**.ue[58].cellularNic.channelModel[*].scenario = "URBAN_MICROCELL"
**.ue[59].cellularNic.channelModel[*].scenario = "URBAN_MICROCELL"

############### Mobility ###############

# eNodeB
*.eNB0.mobility.initialX = 600.0m
*.eNB0.mobility.initialY = 200.0m
*.eNB0.mobility.initialZ = 0m
*.eNB0.mobility.initFromDisplayString = false
*.eNB1.mobility.initialX = 2600.0m
*.eNB1.mobility.initialY = 2200.0m
*.eNB1.mobility.initialZ = 0m
*.eNB1.mobility.initFromDisplayString = false
*.eNB2.mobility.initialX = 2200.0m
*.eNB2.mobility.initialY = 2600.0m
*.eNB2.mobility.initialZ = 0m
*.eNB2.mobility.initFromDisplayString = false
*.eNB*.mobility.constraintAreaMaxX = 4000 m
*.eNB*.mobility.constraintAreaMaxY = 4000 m
*.eNB*.mobility.constraintAreaMaxZ = inf m
*.eNB*.mobility.constraintAreaMinX = 0 m
*.eNB*.mobility.constraintAreaMinY = 0 m
*.eNB*.mobility.constraintAreaMinZ = -inf m

# UEs

*.ue[*].mobilityType = "LinearMobility"
*.ue[0].mobility.initialX = ${712.5973783405723m, 1554.05m, 3747.61m, 1380.05m, 624.547m, 3999.77m, 698.998m, 1966.24m, 2879.76m, 2877.12m ! Slice}
*.ue[0].mobility.initialY = ${1015.1650382632008m, 660.272m, 269.965m, 583.621m, 872.984m, 1473.44m, 2024.93m, 2457.71m, 2622.86m, 2962.93m ! Slice}
*.ue[0].mobility.initialZ = ${0m, 0.0m, 0.0m, 0.0m, 0.0m, 0.0m, 0.0m, 0.0m, 0.0m, 0.0m ! Slice}
*.ue[0].mobility.initFromDisplayString = false
*.ue[1].mobility.initialX = ${583.270034046595m, 1083.27m, 2705.45m, 2119.23m, 984.465m, 3229.66m, 2357.6m, 1569.82m, 851.894m, 1593.89m ! Slice}
*.ue[1].mobility.initialY = ${992.184658555984m, 468.565m, 1312.32m, 3679.11m, 620.29m, 2220.41m, 3108.91m, 2491.14m, 1739.3m, 991.459m ! Slice}
*.ue[1].mobility.initialZ = ${0m, 0.0m, 0.0m, 0.0m, 0.0m, 0.0m, 0.0m, 0.0m, 0.0m, 0.0m ! Slice}
*.ue[1].mobility.initFromDisplayString = false
*.ue[2].mobility.initialX = ${1022.3749019551142m, 1506.62m, 3308.33m, 3956.96m, 2825.81m, 1449.27m, 167.841m, 728.047m, 2744.4m, 3588.25m ! Slice}
*.ue[2].mobility.initialY = ${987.0553860358563m, 2742.41m, 2194.12m, 1421.06m, 697.379m, 2520.14m, 3278.89m, 2183.89m, 1303.43m, 2174.55m ! Slice}
*.ue[2].mobility.initialZ = ${0m, 0.0m, 0.0m, 0.0m, 0.0m, 0.0m, 0.0m, 0.0m, 0.0m, 0.0m ! Slice}
*.ue[2].mobility.initFromDisplayString = false
*.ue[3].mobility.initialX = ${1292.80262584006m, 3435.94m, 2417.24m, 2292.18m, 2813.75m, 505.734m, 2570.84m, 3582.78m, 1509.34m, 715.537m ! Slice}
*.ue[3].mobility.initialY = ${1127.6109102274463m, 2287.29m, 3413.68m, 2154.12m, 621.364m, 905.774m, 2450.66m, 3024.52m, 3252.05m, 2335.5m ! Slice}
*.ue[3].mobility.initialZ = ${0m, 0.0m, 0.0m, 0.0m, 0.0m, 0.0m, 0.0m, 0.0m, 0.0m, 0.0m ! Slice}
*.ue[3].mobility.initFromDisplayString = false
*.ue[4].mobility.initialX = ${1328.6902675465137m, 2937.41m, 1223.52m, 501.026m, 2078.12m, 2543.27m, 212.095m, 3093.08m, 3021.5m, 715.436m ! Slice}
*.ue[4].mobility.initialY = ${1156.8740170604544m, 3586.83m, 2677.17m, 1550.0m, 198.38m, 2115.27m, 3208.65m, 1351.97m, 14.4471m, 1831.25m ! Slice}
*.ue[4].mobility.initialZ = ${0m, 0.0m, 0.0m, 0.0m, 0.0m, 0.0m, 0.0m, 0.0m, 0.0m, 0.0m ! Slice}
*.ue[4].mobility.initFromDisplayString = false
*.ue[5].mobility.initialX = ${1200.9776248187245m, 709.325m, 1144.21m, 2487.2m, 3497.45m, 3797.34m, 3127.38m, 1080.75m, 512.897m, 1535.39m ! Slice}
*.ue[5].mobility.initialY = ${954.3371845386823m, 2121.99m, 1437.27m, 1982.93m, 3887.13m, 2405.25m, 621.173m, 2960.54m, 1751.71m, 1251.46m ! Slice}
*.ue[5].mobility.initialZ = ${0m, 0.0m, 0.0m, 0.0m, 0.0m, 0.0m, 0.0m, 0.0m, 0.0m, 0.0m ! Slice}
*.ue[5].mobility.initFromDisplayString = false
*.ue[6].mobility.initialX = ${671.3890152516644m, 2373.81m, 2083.06m, 1485.3m, 2567.67m, 3039.21m, 295.581m, 2198.16m, 2272.19m, 528.56m ! Slice}
*.ue[6].mobility.initialY = ${1333.896480857858m, 474.015m, 2002.0m, 3828.44m, 3383.59m, 2254.82m, 664.042m, 756.298m, 2359.84m, 3448.06m ! Slice}
*.ue[6].mobility.initialZ = ${0m, 0.0m, 0.0m, 0.0m, 0.0m, 0.0m, 0.0m, 0.0m, 0.0m, 0.0m ! Slice}
*.ue[6].mobility.initFromDisplayString = false
*.ue[7].mobility.initialX = ${784.5161098306323m, 1233.39m, 3774.73m, 1467.07m, 1393.81m, 2400.37m, 3405.58m, 1708.25m, 1715.01m, 2438.77m ! Slice}
*.ue[7].mobility.initialY = ${1445.2977496751803m, 241.475m, 1525.47m, 3288.12m, 2908.69m, 2210.16m, 983.7m, 478.111m, 2326.28m, 2990.46m ! Slice}
*.ue[7].mobility.initialZ = ${0m, 0.0m, 0.0m, 0.0m, 0.0m, 0.0m, 0.0m, 0.0m, 0.0m, 0.0m ! Slice}
*.ue[7].mobility.initFromDisplayString = false
*.ue[8].mobility.initialX = ${662.5584877410599m, 3780.95m, 2210.86m, 1393.0m, 3849.08m, 964.821m, 2305.85m, 3851.25m, 2229.4m, 1265.09m ! Slice}
*.ue[8].mobility.initialY = ${1349.3661384702173m, 2177.19m, 2710.3m, 3559.42m, 3610.65m, 2835.19m, 2001.02m, 1477.71m, 1047.16m, 229.377m ! Slice}
*.ue[8].mobility.initialZ = ${0m, 0.0m, 0.0m, 0.0m, 0.0m, 0.0m, 0.0m, 0.0m, 0.0m, 0.0m ! Slice}
*.ue[8].mobility.initFromDisplayString = false
*.ue[9].mobility.initialX = ${758.1953430063279m, 2020.32m, 3237.43m, 299.332m, 1485.41m, 3755.62m, 1533.11m, 1242.48m, 2985.46m, 1925.91m ! Slice}
*.ue[9].mobility.initialY = ${1280.5851647643276m, 451.321m, 417.933m, 1389.74m, 1953.16m, 2669.83m, 3525.1m, 3600.0m, 2581.5m, 2072.79m ! Slice}
*.ue[9].mobility.initialZ = ${0m, 0.0m, 0.0m, 0.0m, 0.0m, 0.0m, 0.0m, 0.0m, 0.0m, 0.0m ! Slice}
*.ue[9].mobility.initFromDisplayString = false
*.ue[10].mobility.initialX = ${798.4529499871659m, 1265.56m, 2101.4m, 2977.48m, 3686.62m, 3201.75m, 2335.57m, 1539.7m, 1116.54m, 830.145m ! Slice}
*.ue[10].mobility.initialY = ${1493.8955094180963m, 3365.15m, 1201.11m, 2410.6m, 2650.93m, 1853.26m, 2565.7m, 175.301m, 1870.49m, 3017.8m ! Slice}
*.ue[10].mobility.initialZ = ${0m, 0.0m, 0.0m, 0.0m, 0.0m, 0.0m, 0.0m, 0.0m, 0.0m, 0.0m ! Slice}
*.ue[10].mobility.initFromDisplayString = false
*.ue[11].mobility.initialX = ${788.1673289722584m, 2036.41m, 2589.74m, 187.551m, 3234.65m, 1166.1m, 1036.99m, 3805.89m, 486.498m, 1590.42m ! Slice}
*.ue[11].mobility.initialY = ${1411.9507973735174m, 2399.19m, 3571.36m, 3342.18m, 2137.48m, 835.87m, 56.0223m, 1179.11m, 2407.87m, 3165.11m ! Slice}
*.ue[11].mobility.initialZ = ${0m, 0.0m, 0.0m, 0.0m, 0.0m, 0.0m, 0.0m, 0.0m, 0.0m, 0.0m ! Slice}
*.ue[11].mobility.initFromDisplayString = false
*.ue[12].mobility.initialX = ${793.0554647131752m, 3146.55m, 2400.04m, 966.173m, 3493.18m, 2354.88m, 1460.26m, 3613.88m, 1325.54m, 2404.68m ! Slice}
*.ue[12].mobility.initialY = ${1455.6626162566624m, 94.4562m, 1632.41m, 3626.13m, 2374.23m, 1018.32m, 1410.06m, 2940.6m, 2882.55m, 724.148m ! Slice}
*.ue[12].mobility.initialZ = ${0m, 0.0m, 0.0m, 0.0m, 0.0m, 0.0m, 0.0m, 0.0m, 0.0m, 0.0m ! Slice}
*.ue[12].mobility.initFromDisplayString = false
*.ue[13].mobility.initialX = ${716.9890415933287m, 2405.89m, 3723.16m, 2486.55m, 77.8444m, 2359.75m, 2451.01m, 1943.06m, 683.384m, 3921.47m ! Slice}
*.ue[13].mobility.initialY = ${1313.042018715783m, 2166.6m, 2832.34m, 3721.84m, 2929.57m, 1813.58m, 344.946m, 93.8084m, 1191.47m, 3098.21m ! Slice}
*.ue[13].mobility.initialZ = ${0m, 0.0m, 0.0m, 0.0m, 0.0m, 0.0m, 0.0m, 0.0m, 0.0m, 0.0m ! Slice}
*.ue[13].mobility.initFromDisplayString = false
*.ue[14].mobility.initialX = ${781.734261581316m, 656.555m, 269.862m, 106.502m, 408.922m, 674.014m, 1002.29m, 1297.95m, 1714.52m, 2069.39m ! Slice}
*.ue[14].mobility.initialY = ${1453.8246915110346m, 173.212m, 3417.26m, 1206.04m, 2497.59m, 2708.78m, 926.672m, 3408.84m, 470.473m, 3101.23m ! Slice}
*.ue[14].mobility.initialZ = ${0m, 0.0m, 0.0m, 0.0m, 0.0m, 0.0m, 0.0m, 0.0m, 0.0m, 0.0m ! Slice}
*.ue[14].mobility.initFromDisplayString = false
*.ue[15].mobility.initialX = ${828.3180372656211m, 1184.69m, 1727.56m, 2124.7m, 2450.19m, 2837.68m, 3348.61m, 3705.48m, 3714.69m, 3146.08m ! Slice}
*.ue[15].mobility.initialY = ${1472.1615537784526m, 3720.69m, 848.197m, 1751.94m, 3705.37m, 1831.15m, 1694.06m, 3625.6m, 1012.73m, 3011.46m ! Slice}
*.ue[15].mobility.initialZ = ${0m, 0.0m, 0.0m, 0.0m, 0.0m, 0.0m, 0.0m, 0.0m, 0.0m, 0.0m ! Slice}
*.ue[15].mobility.initFromDisplayString = false
*.ue[16].mobility.initialX = ${818.4947388507187m, 1205.22m, 3047.35m, 1932.5m, 31.247m, 1927.63m, 3932.8m, 2124.01m, 1318.64m, 1049.33m ! Slice}
*.ue[16].mobility.initialY = ${1387.2856960020447m, 3312.97m, 2515.79m, 841.196m, 2484.74m, 3224.56m, 1272.13m, 810.224m, 1434.32m, 3627.3m ! Slice}
*.ue[16].mobility.initialZ = ${0m, 0.0m, 0.0m, 0.0m, 0.0m, 0.0m, 0.0m, 0.0m, 0.0m, 0.0m ! Slice}
*.ue[16].mobility.initFromDisplayString = false
*.ue[17].mobility.initialX = ${821.6471226015686m, 1868.45m, 3054.36m, 2757.41m, 1709.5m, 182.72m, 1166.25m, 2495.11m, 3935.22m, 2035.88m ! Slice}
*.ue[17].mobility.initialY = ${1499.2820441558767m, 2992.88m, 3146.82m, 428.781m, 1327.7m, 3480.75m, 2542.81m, 698.48m, 1642.72m, 3748.85m ! Slice}
*.ue[17].mobility.initialZ = ${0m, 0.0m, 0.0m, 0.0m, 0.0m, 0.0m, 0.0m, 0.0m, 0.0m, 0.0m ! Slice}
*.ue[17].mobility.initFromDisplayString = false
*.ue[18].mobility.initialX = ${818.8726362390435m, 1536.75m, 2646.92m, 251.516m, 3474.4m, 2897.41m, 1520.56m, 2730.01m, 189.801m, 1862.89m ! Slice}
*.ue[18].mobility.initialY = ${1476.014444880035m, 615.246m, 864.51m, 1888.5m, 3351.71m, 3979.92m, 2493.07m, 1007.26m, 517.29m, 1002.26m ! Slice}
*.ue[18].mobility.initialZ = ${0m, 0.0m, 0.0m, 0.0m, 0.0m, 0.0m, 0.0m, 0.0m, 0.0m, 0.0m ! Slice}
*.ue[18].mobility.initFromDisplayString = false
*.ue[19].mobility.initialX = ${901.4703610419579m, 851.849m, 780.752m, 731.02m, 655.51m, 610.017m, 573.773m, 490.378m, 483.613m, 434.239m ! Slice}
*.ue[19].mobility.initialY = ${1481.7715892208887m, 3897.73m, 143.096m, 2483.22m, 1275.58m, 1096.13m, 2787.42m, 603.639m, 451.238m, 2248.91m ! Slice}
*.ue[19].mobility.initialZ = ${0m, 0.0m, 0.0m, 0.0m, 0.0m, 0.0m, 0.0m, 0.0m, 0.0m, 0.0m ! Slice}
*.ue[19].mobility.initFromDisplayString = false
*.ue[20].mobility.initialX = ${940.3798855832695m, 180.422m, 428.27m, 1405.62m, 2283.71m, 2627.18m, 3794.32m, 3142.11m, 2035.17m, 1332.82m ! Slice}
*.ue[20].mobility.initialY = ${1577.4499458719497m, 1382.1m, 3117.6m, 1277.76m, 1850.21m, 2834.89m, 891.255m, 2673.78m, 1332.11m, 1122.57m ! Slice}
*.ue[20].mobility.initialZ = ${0m, 0.0m, 0.0m, 0.0m, 0.0m, 0.0m, 0.0m, 0.0m, 0.0m, 0.0m ! Slice}
*.ue[20].mobility.initFromDisplayString = false
*.ue[21].mobility.initialX = ${825.9090003945058m, 2150.78m, 2844.75m, 1854.43m, 811.635m, 1664.27m, 3992.2m, 1354.36m, 872.291m, 2620.36m ! Slice}
*.ue[21].mobility.initialY = ${1426.0417774348891m, 86.791m, 3128.83m, 3241.29m, 704.177m, 751.225m, 3342.27m, 1570.86m, 916.744m, 2893.0m ! Slice}
*.ue[21].mobility.initialZ = ${0m, 0.0m, 0.0m, 0.0m, 0.0m, 0.0m, 0.0m, 0.0m, 0.0m, 0.0m ! Slice}
*.ue[21].mobility.initFromDisplayString = false
*.ue[22].mobility.initialX = ${815.3114095986746m, 16.1143m, 1852.69m, 3363.41m, 3382.96m, 1598.69m, 142.393m, 2379.07m, 3960.93m, 2833.64m ! Slice}
*.ue[22].mobility.initialY = ${1398.9009437288573m, 2420.89m, 3028.48m, 1464.62m, 44.177m, 2269.57m, 3940.34m, 841.562m, 1302.79m, 2585.18m ! Slice}
*.ue[22].mobility.initialZ = ${0m, 0.0m, 0.0m, 0.0m, 0.0m, 0.0m, 0.0m, 0.0m, 0.0m, 0.0m ! Slice}
*.ue[22].mobility.initFromDisplayString = false
*.ue[23].mobility.initialX = ${963.0214179994821m, 2616.32m, 2583.46m, 1774.73m, 3056.98m, 192.811m, 2496.24m, 1417.6m, 789.037m, 2460.42m ! Slice}
*.ue[23].mobility.initialY = ${1475.2361377715042m, 786.148m, 2089.39m, 3186.65m, 1669.93m, 559.473m, 1822.78m, 3949.04m, 2670.95m, 1553.23m ! Slice}
*.ue[23].mobility.initialZ = ${0m, 0.0m, 0.0m, 0.0m, 0.0m, 0.0m, 0.0m, 0.0m, 0.0m, 0.0m ! Slice}
*.ue[23].mobility.initFromDisplayString = false
*.ue[24].mobility.initialX = ${837.652263629669m, 2951.18m, 2786.27m, 1446.5m, 2069.84m, 2861.26m, 1439.64m, 2417.68m, 1968.26m, 2009.52m ! Slice}
*.ue[24].mobility.initialY = ${1427.227104825814m, 146.552m, 1126.63m, 2036.24m, 3990.91m, 2197.06m, 1112.06m, 1273.2m, 3238.82m, 2296.09m ! Slice}
*.ue[24].mobility.initialZ = ${0m, 0.0m, 0.0m, 0.0m, 0.0m, 0.0m, 0.0m, 0.0m, 0.0m, 0.0m ! Slice}
*.ue[24].mobility.initFromDisplayString = false
*.ue[25].mobility.initialX = ${898.4157975051613m, 3010.66m, 2869.05m, 1366.16m, 753.581m, 1458.84m, 3384.03m, 2938.02m, 1215.77m, 226.656m ! Slice}
*.ue[25].mobility.initialY = ${1460.0888645964012m, 2850.49m, 392.249m, 2119.1m, 2739.84m, 1646.3m, 1557.36m, 3656.77m, 1603.19m, 135.476m ! Slice}
*.ue[25].mobility.initialZ = ${0m, 0.0m, 0.0m, 0.0m, 0.0m, 0.0m, 0.0m, 0.0m, 0.0m, 0.0m ! Slice}
*.ue[25].mobility.initFromDisplayString = false
*.ue[26].mobility.initialX = ${843.1754821035721m, 1716.24m, 3924.95m, 905.332m, 2351.48m, 2943.97m, 1307.08m, 1137.51m, 3732.76m, 828.819m ! Slice}
*.ue[26].mobility.initialY = ${1425.1777519886955m, 428.526m, 626.087m, 1883.9m, 3193.29m, 3616.73m, 2948.59m, 2022.91m, 847.608m, 731.275m ! Slice}
*.ue[26].mobility.initialZ = ${0m, 0.0m, 0.0m, 0.0m, 0.0m, 0.0m, 0.0m, 0.0m, 0.0m, 0.0m ! Slice}
*.ue[26].mobility.initFromDisplayString = false
*.ue[27].mobility.initialX = ${848.6204683193882m, 407.558m, 538.926m, 1711.95m, 2956.68m, 3478.51m, 2786.47m, 2431.01m, 1850.3m, 1174.51m ! Slice}