#Function: ilp_fixed_sliced_ini
#Parameters: 
#  filename = '../Network_CCOpMv/_5G/simulations/micro_power_40/ilp_fixed_sliced_5.ini'
#  seed = 123
#  Map height distance = 4000
#  Map width distance = 4000
#  Region side distance = 400
#  Extra = Using 1 macros with 60 ues each. Slicing 10s in 10 different simulations. Using microcells.
[General]
sim-time-limit = 10s

############### Statistics ###############
output-scalar-file = ${resultdir}/${configname}/${repetition}.sca
output-vector-file = ${resultdir}/${configname}/${repetition}.vec
**.vector-recording = false
eventlog-file = ${resultdir}/${configname}/${repetition}.elog
seed-set = ${repetition}

[Config ilp_fixed_sliced_5_video]
network = _5G.networks.micro_power_40.ILPFixedNet5
sim-time-limit = 1s
repeat = 3
seed-set = ${repetition}
num-rngs = 2
seed-1-mt = 123

############### Outputs ###############
**.eNB*.cellularNic.channelModel[*].idRcvdSinr:vector.vector-recording = true
**.eNB*.cellularNic.channelModel[*].rcvdSinr:vector.vector-recording = true
**.app[*].throughput:vector.vector-recording = true
**.app[*].endToEndDelay:vector.vector-recording = true
output-scalar-file = ${resultdir}/${configname}/5-${RBs}-${repetition}-${Slice}.sca
output-vector-file = ${resultdir}/${configname}/5-${RBs}-${repetition}-${Slice}.vec
**.vector-recording = false
eventlog-file = ${resultdir}/${configname}/5-${RBs}-${repetition}-${Slice}.elog

############### Cmdenv ###############
cmdenv-performance-display = false
cmdenv-redirect-output = true
cmdenv-output-file = ${resultdir}/${configname}-cmdout/5-${RBs}-${repetition}-${Slice}.out

############### Snapshots ###############
snapshot-file = ../../../Functions/${configname}-RBs_${RBs}-Slice_${Slice}-5-${repetition}.sna
**.snapshotter.snapshot = false
**.snapshotter.delay = 1.0

############### Transmission Power ###############
**.ueTxPower = 24
**.eNodeBTxPower = 46
**.microTxPower = 40
**.cellularNic.phy.txDirection = "OMNI"

############### Channel Control ###############
**.numComponentCarriers = 1
*.carrierAggregation.componentCarrier[0].carrierFrequency = 0.7GHz

############### Channel Model ###############
**.cellularNic.LteChannelModelType = "MoreInfoChannelModel"
**.cellularNic.channelModel[*].building_height = 20
**.cellularNic.channelModel[*].nodeb_height = 18
**.cellularNic.channelModel[*].ue_height = 1.5
**.cellularNic.channelModel[*].street_wide = 20
**.cellularNic.channelModel[*].fading_type = "JAKES"
**.cellularNic.channelModel[*].extCell_interference = false
**.cellularNic.channelModel[*].antennGainEnB = 18
**.cellularNic.channelModel[*].antennGainMicro = 5
**.cellularNic.channelModel[*].antennaGainUe = -1
**.cellularNic.channelModel[*].bs_noise_figure = 9
**.cellularNic.channelModel[*].cable_loss = 2
**.cellularNic.channelModel[*].componentCarrierIndex = 0
**.cellularNic.channelModel[*].correlation_distance = 50
**.cellularNic.channelModel[*].d2d_interference = true
**.cellularNic.channelModel[*].delay_rms = 363e-9
**.cellularNic.channelModel[*].downlink_interference = false
**.cellularNic.channelModel[*].dynamic_los = false
**.cellularNic.channelModel[*].enable_extCell_los = true
**.cellularNic.channelModel[*].fading = true
**.cellularNic.channelModel[*].fading_paths = 6
**.cellularNic.channelModel[*].fixed_los = false
**.cellularNic.channelModel[*].harqReduction = 0.2
**.cellularNic.channelModel[*].inside_building = false
**.cellularNic.channelModel[*].lambdaMaxTh = 0.2
**.cellularNic.channelModel[*].lambdaMinTh = 0.02
**.cellularNic.channelModel[*].lambdaRatioTh = 20
**.cellularNic.channelModel[*].rsrqScale = 1.0
**.cellularNic.channelModel[*].rsrqShift = 22
**.cellularNic.channelModel[*].shadowing = true
**.cellularNic.channelModel[*].targetBler = 0.01
**.cellularNic.channelModel[*].thermalNoise = -104.5
**.cellularNic.channelModel[*].tolerateMaxDistViolation = true
**.cellularNic.channelModel[*].ue_noise_figure = 7
**.cellularNic.channelModel[*].uplink_interference = false
**.cellularNic.channelModel[*].useRsrqFromLog = false
**.cellularNic.channelModel[*].useTorus = false
**.cellularNic.channelModel[*].num_slice = ${Slice= 0, 1, 2, 3, 4, 5, 6, 7, 8, 9}
**.cellularNic.channelModel[*].num_enbs = ${NumEnbs= 1, 2, 2, 2, 2, 2, 2, 2, 2, 2 ! Slice}

############### Resource Blocks ###############
**.numBands = ${RBs= 100}

############### eNBs ###############
**.eNB0.cellInfo.microCell = true
**.eNB1.cellInfo.microCell = true

############### UEs ###############
**.numUe = 60

# Conecting UEs to eNodeB
**.ue[0].macCellId = ${1, 1, 1, 1, 2, 1, 1, 2, 2, 2 ! Slice}
**.ue[0].masterId = ${1, 1, 1, 1, 2, 1, 1, 2, 2, 2 ! Slice}
**.ue[1].macCellId = ${1, 2, 2, 1, 1, 2, 2, 1, 2, 1 ! Slice}
**.ue[1].masterId = ${1, 2, 2, 1, 1, 2, 2, 1, 2, 1 ! Slice}
**.ue[2].macCellId = ${1, 1, 2, 1, 1, 1, 2, 1, 2, 1 ! Slice}
**.ue[2].masterId = ${1, 1, 2, 1, 1, 1, 2, 1, 2, 1 ! Slice}
**.ue[3].macCellId = ${1, 2, 2, 1, 2, 2, 2, 2, 1, 1 ! Slice}
**.ue[3].masterId = ${1, 2, 2, 1, 2, 2, 2, 2, 1, 1 ! Slice}
**.ue[4].macCellId = ${1, 2, 2, 2, 2, 1, 1, 1, 2, 2 ! Slice}
**.ue[4].masterId = ${1, 2, 2, 2, 2, 1, 1, 1, 2, 2 ! Slice}
**.ue[5].macCellId = ${1, 1, 2, 2, 2, 2, 1, 2, 1, 1 ! Slice}
**.ue[5].masterId = ${1, 1, 2, 2, 2, 2, 1, 2, 1, 1 ! Slice}
**.ue[6].macCellId = ${1, 2, 2, 2, 1, 1, 2, 1, 2, 2 ! Slice}
**.ue[6].masterId = ${1, 2, 2, 2, 1, 1, 2, 1, 2, 2 ! Slice}
**.ue[7].macCellId = ${1, 2, 2, 2, 1, 1, 1, 2, 2, 2 ! Slice}
**.ue[7].masterId = ${1, 2, 2, 2, 1, 1, 1, 2, 2, 2 ! Slice}
**.ue[8].macCellId = ${1, 2, 2, 2, 1, 2, 2, 1, 1, 1 ! Slice}
**.ue[8].masterId = ${1, 2, 2, 2, 1, 2, 2, 1, 1, 1 ! Slice}
**.ue[9].macCellId = ${1, 2, 2, 1, 2, 1, 1, 2, 2, 1 ! Slice}
**.ue[9].masterId = ${1, 2, 2, 1, 2, 1, 1, 2, 2, 1 ! Slice}
**.ue[10].macCellId = ${1, 1, 2, 1, 2, 2, 2, 2, 2, 2 ! Slice}
**.ue[10].masterId = ${1, 1, 2, 1, 2, 2, 2, 2, 2, 2 ! Slice}
**.ue[11].macCellId = ${1, 1, 2, 2, 1, 2, 1, 1, 1, 1 ! Slice}
**.ue[11].masterId = ${1, 1, 2, 2, 1, 2, 1, 1, 1, 1 ! Slice}
**.ue[12].macCellId = ${1, 2, 2, 1, 2, 1, 2, 2, 1, 2 ! Slice}
**.ue[12].masterId = ${1, 2, 2, 1, 2, 1, 2, 2, 1, 2 ! Slice}
**.ue[13].macCellId = ${1, 1, 1, 2, 2, 2, 1, 2, 1, 1 ! Slice}
**.ue[13].masterId = ${1, 1, 1, 2, 2, 2, 1, 2, 1, 1 ! Slice}
**.ue[14].macCellId = ${1, 2, 1, 2, 2, 1, 2, 2, 2, 1 ! Slice}
**.ue[14].masterId = ${1, 2, 1, 2, 2, 1, 2, 2, 2, 1 ! Slice}
**.ue[15].macCellId = ${1, 1, 2, 1, 2, 2, 2, 2, 2, 2 ! Slice}
**.ue[15].masterId = ${1, 1, 2, 1, 2, 2, 2, 2, 2, 2 ! Slice}
**.ue[16].macCellId = ${1, 2, 2, 2, 2, 2, 1, 2, 2, 1 ! Slice}
**.ue[16].masterId = ${1, 2, 2, 2, 2, 2, 1, 2, 2, 1 ! Slice}
**.ue[17].macCellId = ${1, 2, 1, 1, 1, 1, 2, 2, 1, 1 ! Slice}
**.ue[17].masterId = ${1, 2, 1, 1, 1, 1, 2, 2, 1, 1 ! Slice}
**.ue[18].macCellId = ${1, 2, 1, 2, 2, 2, 2, 2, 2, 2 ! Slice}
**.ue[18].masterId = ${1, 2, 1, 2, 2, 2, 2, 2, 2, 2 ! Slice}
**.ue[19].macCellId = ${1, 2, 2, 2, 1, 2, 2, 1, 2, 2 ! Slice}
**.ue[19].masterId = ${1, 2, 2, 2, 1, 2, 2, 1, 2, 2 ! Slice}
**.ue[20].macCellId = ${1, 2, 2, 1, 1, 2, 1, 1, 1, 1 ! Slice}
**.ue[20].masterId = ${1, 2, 2, 1, 1, 2, 1, 1, 1, 1 ! Slice}
**.ue[21].macCellId = ${1, 2, 2, 1, 1, 1, 2, 1, 2, 1 ! Slice}
**.ue[21].masterId = ${1, 2, 2, 1, 1, 1, 2, 1, 2, 1 ! Slice}
**.ue[22].macCellId = ${1, 1, 2, 1, 1, 2, 2, 2, 2, 1 ! Slice}
**.ue[22].masterId = ${1, 1, 2, 1, 1, 2, 2, 2, 2, 1 ! Slice}
**.ue[23].macCellId = ${1, 1, 1, 1, 1, 2, 1, 2, 1, 1 ! Slice}
**.ue[23].masterId = ${1, 1, 1, 1, 1, 2, 1, 2, 1, 1 ! Slice}
**.ue[24].macCellId = ${1, 2, 2, 1, 2, 2, 1, 1, 1, 1 ! Slice}
**.ue[24].masterId = ${1, 2, 2, 1, 2, 2, 1, 1, 1, 1 ! Slice}
**.ue[25].macCellId = ${1, 2, 1, 2, 2, 1, 2, 1, 2, 1 ! Slice}
**.ue[25].masterId = ${1, 2, 1, 2, 2, 1, 2, 1, 2, 1 ! Slice}
**.ue[26].macCellId = ${1, 2, 2, 2, 1, 1, 2, 1, 2, 1 ! Slice}
**.ue[26].masterId = ${1, 2, 2, 2, 1, 1, 2, 1, 2, 1 ! Slice}
**.ue[27].macCellId = ${1, 2, 2, 2, 1, 2, 1, 1, 2, 1 ! Slice}
**.ue[27].masterId = ${1, 2, 2, 2, 1, 2, 1, 1, 2, 1 ! Slice}
**.ue[28].macCellId = ${1, 2, 1, 2, 2, 1, 2, 1, 2, 2 ! Slice}
**.ue[28].masterId = ${1, 2, 1, 2, 2, 1, 2, 1, 2, 2 ! Slice}
**.ue[29].macCellId = ${1, 1, 1, 1, 2, 2, 2, 1, 2, 1 ! Slice}
**.ue[29].masterId = ${1, 1, 1, 1, 2, 2, 2, 1, 2, 1 ! Slice}
**.ue[30].macCellId = ${1, 1, 1, 1, 1, 1, 1, 1, 1, 2 ! Slice}
**.ue[30].masterId = ${1, 1, 1, 1, 1, 1, 1, 1, 1, 2 ! Slice}
**.ue[31].macCellId = ${1, 2, 2, 2, 1, 2, 1, 1, 1, 2 ! Slice}
**.ue[31].masterId = ${1, 2, 2, 2, 1, 2, 1, 1, 1, 2 ! Slice}
**.ue[32].macCellId = ${1, 2, 2, 1, 2, 1, 2, 2, 2, 1 ! Slice}
**.ue[32].masterId = ${1, 2, 2, 1, 2, 1, 2, 2, 2, 1 ! Slice}
**.ue[33].macCellId = ${1, 2, 2, 2, 1, 2, 1, 1, 2, 2 ! Slice}
**.ue[33].masterId = ${1, 2, 2, 2, 1, 2, 1, 1, 2, 2 ! Slice}
**.ue[34].macCellId = ${1, 2, 2, 2, 1, 2, 1, 2, 2, 1 ! Slice}
**.ue[34].masterId = ${1, 2, 2, 2, 1, 2, 1, 2, 2, 1 ! Slice}
**.ue[35].macCellId = ${1, 2, 1, 2, 2, 1, 1, 2, 1, 2 ! Slice}
**.ue[35].masterId = ${1, 2, 1, 2, 2, 1, 1, 2, 1, 2 ! Slice}
**.ue[36].macCellId = ${1, 2, 1, 1, 1, 2, 1, 2, 2, 2 ! Slice}
**.ue[36].masterId = ${1, 2, 1, 1, 1, 2, 1, 2, 2, 2 ! Slice}
**.ue[37].macCellId = ${1, 1, 2, 1, 1, 1, 1, 1, 2, 1 ! Slice}
**.ue[37].masterId = ${1, 1, 2, 1, 1, 1, 1, 1, 2, 1 ! Slice}
**.ue[38].macCellId = ${1, 2, 1, 2, 2, 2, 2, 2, 2, 2 ! Slice}
**.ue[38].masterId = ${1, 2, 1, 2, 2, 2, 2, 2, 2, 2 ! Slice}
**.ue[39].macCellId = ${1, 1, 2, 1, 2, 1, 1, 1, 1, 1 ! Slice}
**.ue[39].masterId = ${1, 1, 2, 1, 2, 1, 1, 1, 1, 1 ! Slice}
**.ue[40].macCellId = ${1, 1, 1, 1, 2, 1, 2, 1, 2, 1 ! Slice}
**.ue[40].masterId = ${1, 1, 1, 1, 2, 1, 2, 1, 2, 1 ! Slice}
**.ue[41].macCellId = ${1, 2, 1, 2, 2, 2, 1, 2, 1, 1 ! Slice}
**.ue[41].masterId = ${1, 2, 1, 2, 2, 2, 1, 2, 1, 1 ! Slice}
**.ue[42].macCellId = ${1, 1, 2, 1, 2, 2, 1, 1, 2, 1 ! Slice}
**.ue[42].masterId = ${1, 1, 2, 1, 2, 2, 1, 1, 2, 1 ! Slice}
**.ue[43].macCellId = ${1, 1, 2, 2, 1, 2, 1, 2, 1, 2 ! Slice}
**.ue[43].masterId = ${1, 1, 2, 2, 1, 2, 1, 2, 1, 2 ! Slice}
**.ue[44].macCellId = ${1, 2, 1, 2, 1, 2, 1, 1, 1, 1 ! Slice}
**.ue[44].masterId = ${1, 2, 1, 2, 1, 2, 1, 1, 1, 1 ! Slice}
**.ue[45].macCellId = ${1, 2, 1, 2, 2, 1, 2, 1, 1, 2 ! Slice}
**.ue[45].masterId = ${1, 2, 1, 2, 2, 1, 2, 1, 1, 2 ! Slice}
**.ue[46].macCellId = ${1, 1, 1, 1, 2, 2, 1, 2, 2, 1 ! Slice}
**.ue[46].masterId = ${1, 1, 1, 1, 2, 2, 1, 2, 2, 1 ! Slice}
**.ue[47].macCellId = ${1, 2, 2, 1, 1, 1, 1, 2, 2, 1 ! Slice}
**.ue[47].masterId = ${1, 2, 2, 1, 1, 1, 1, 2, 2, 1 ! Slice}
**.ue[48].macCellId = ${1, 1, 2, 1, 2, 1, 2, 1, 1, 1 ! Slice}
**.ue[48].masterId = ${1, 1, 2, 1, 2, 1, 2, 1, 1, 1 ! Slice}
**.ue[49].macCellId = ${1, 2, 2, 1, 2, 2, 2, 2, 2, 1 ! Slice}
**.ue[49].masterId = ${1, 2, 2, 1, 2, 2, 2, 2, 2, 1 ! Slice}
**.ue[50].macCellId = ${1, 1, 2, 2, 2, 1, 1, 2, 1, 1 ! Slice}
**.ue[50].masterId = ${1, 1, 2, 2, 2, 1, 1, 2, 1, 1 ! Slice}
**.ue[51].macCellId = ${1, 2, 2, 1, 1, 2, 2, 2, 2, 2 ! Slice}
**.ue[51].masterId = ${1, 2, 2, 1, 1, 2, 2, 2, 2, 2 ! Slice}
**.ue[52].macCellId = ${1, 1, 2, 1, 1, 2, 2, 1, 2, 1 ! Slice}
**.ue[52].masterId = ${1, 1, 2, 1, 1, 2, 2, 1, 2, 1 ! Slice}
**.ue[53].macCellId = ${1, 1, 2, 1, 2, 1, 2, 2, 1, 1 ! Slice}
**.ue[53].masterId = ${1, 1, 2, 1, 2, 1, 2, 2, 1, 1 ! Slice}
**.ue[54].macCellId = ${1, 1, 2, 2, 2, 2, 2, 1, 1, 2 ! Slice}
**.ue[54].masterId = ${1, 1, 2, 2, 2, 2, 2, 1, 1, 2 ! Slice}
**.ue[55].macCellId = ${1, 1, 2, 1, 2, 2, 1, 1, 1, 2 ! Slice}
**.ue[55].masterId = ${1, 1, 2, 1, 2, 2, 1, 1, 1, 2 ! Slice}
**.ue[56].macCellId = ${1, 2, 1, 2, 1, 2, 1, 1, 1, 1 ! Slice}
**.ue[56].masterId = ${1, 2, 1, 2, 1, 2, 1, 1, 1, 1 ! Slice}
**.ue[57].macCellId = ${1, 2, 1, 2, 1, 1, 2, 2, 2, 1 ! Slice}
**.ue[57].masterId = ${1, 2, 1, 2, 1, 1, 2, 2, 2, 1 ! Slice}
**.ue[58].macCellId = ${1, 2, 1, 2, 2, 1, 2, 2, 1, 1 ! Slice}
**.ue[58].masterId = ${1, 2, 1, 2, 2, 1, 2, 2, 1, 1 ! Slice}
**.ue[59].macCellId = ${1, 1, 1, 2, 1, 1, 2, 1, 2, 2 ! Slice}
**.ue[59].masterId = ${1, 1, 1, 2, 1, 1, 2, 1, 2, 2 ! Slice}

# Scheduler
**.schedulingDisciplineUl = ${sched= "MAXCI"}
**.schedulingDisciplineDl = ${sched}

############### Scenario ###############

# eNodeBs
**.eNB0.cellularNic.channelModel[*].scenario = "URBAN_MICROCELL"
**.eNB1.cellularNic.channelModel[*].scenario = "URBAN_MICROCELL"

# UEs
**.ue[0].cellularNic.channelModel[*].scenario = "URBAN_MICROCELL"
**.ue[1].cellularNic.channelModel[*].scenario = "URBAN_MICROCELL"
**.ue[2].cellularNic.channelModel[*].scenario = "URBAN_MICROCELL"
**.ue[3].cellularNic.channelModel[*].scenario = "URBAN_MICROCELL"
**.ue[4].cellularNic.channelModel[*].scenario = "URBAN_MICROCELL"
**.ue[5].cellularNic.channelModel[*].scenario = "URBAN_MICROCELL"
**.ue[6].cellularNic.channelModel[*].scenario = "URBAN_MICROCELL"
**.ue[7].cellularNic.channelModel[*].scenario = "URBAN_MICROCELL"
**.ue[8].cellularNic.channelModel[*].scenario = "URBAN_MICROCELL"
**.ue[9].cellularNic.channelModel[*].scenario = "URBAN_MICROCELL"
**.ue[10].cellularNic.channelModel[*].scenario = "URBAN_MICROCELL"
**.ue[11].cellularNic.channelModel[*].scenario = "URBAN_MICROCELL"
**.ue[12].cellularNic.channelModel[*].scenario = "URBAN_MICROCELL"
**.ue[13].cellularNic.channelModel[*].scenario = "URBAN_MICROCELL"
**.ue[14].cellularNic.channelModel[*].scenario = "URBAN_MICROCELL"
**.ue[15].cellularNic.channelModel[*].scenario = "URBAN_MICROCELL"
**.ue[16].cellularNic.channelModel[*].scenario = "URBAN_MICROCELL"
**.ue[17].cellularNic.channelModel[*].scenario = "URBAN_MICROCELL"
**.ue[18].cellularNic.channelModel[*].scenario = "URBAN_MICROCELL"
**.ue[19].cellularNic.channelModel[*].scenario = "URBAN_MICROCELL"
**.ue[20].cellularNic.channelModel[*].scenario = "URBAN_MICROCELL"
**.ue[21].cellularNic.channelModel[*].scenario = "URBAN_MICROCELL"
**.ue[22].cellularNic.channelModel[*].scenario = "URBAN_MICROCELL"
**.ue[23].cellularNic.channelModel[*].scenario = "URBAN_MICROCELL"
**.ue[24].cellularNic.channelModel[*].scenario = "URBAN_MICROCELL"
**.ue[25].cellularNic.channelModel[*].scenario = "URBAN_MICROCELL"
**.ue[26].cellularNic.channelModel[*].scenario = "URBAN_MICROCELL"
**.ue[27].cellularNic.channelModel[*].scenario = "URBAN_MICROCELL"
**.ue[28].cellularNic.channelModel[*].scenario = "URBAN_MICROCELL"
**.ue[29].cellularNic.channelModel[*].scenario = "URBAN_MICROCELL"
**.ue[30].cellularNic.channelModel[*].scenario = "URBAN_MICROCELL"
**.ue[31].cellularNic.channelModel[*].scenario = "URBAN_MICROCELL"
**.ue[32].cellularNic.channelModel[*].scenario = "URBAN_MICROCELL"
**.ue[33].cellularNic.channelModel[*].scenario = "URBAN_MICROCELL"
**.ue[34].cellularNic.channelModel[*].scenario = "URBAN_MICROCELL"
**.ue[35].cellularNic.channelModel[*].scenario = "URBAN_MICROCELL"
**.ue[36].cellularNic.channelModel[*].scenario = "URBAN_MICROCELL"
**.ue[37].cellularNic.channelModel[*].scenario = "URBAN_MICROCELL"
**.ue[38].cellularNic.channelModel[*].scenario = "URBAN_MICROCELL"
**.ue[39].cellularNic.channelModel[*].scenario = "URBAN_MICROCELL"
**.ue[40].cellularNic.channelModel[*].scenario = "URBAN_MICROCELL"
**.ue[41].cellularNic.channelModel[*].scenario = "URBAN_MICROCELL"
**.ue[42].cellularNic.channelModel[*].scenario = "URBAN_MICROCELL"
**.ue[43].cellularNic.channelModel[*].scenario = "URBAN_MICROCELL"
**.ue[44].cellularNic.channelModel[*].scenario = "URBAN_MICROCELL"
**.ue[45].cellularNic.channelModel[*].scenario = "URBAN_MICROCELL"
**.ue[46].cellularNic.channelModel[*].scenario = "URBAN_MICROCELL"
**.ue[47].cellularNic.channelModel[*].scenario = "URBAN_MICROCELL"
**.ue[48].cellularNic.channelModel[*].scenario = "URBAN_MICROCELL"
**.ue[49].cellularNic.channelModel[*].scenario = "URBAN_MICROCELL"
**.ue[50].cellularNic.channelModel[*].scenario = "URBAN_MICROCELL"
**.ue[51].cellularNic.channelModel[*].scenario = "URBAN_MICROCELL"
**.ue[52].cellularNic.channelModel[*].scenario = "URBAN_MICROCELL"
**.ue[53].cellularNic.channelModel[*].scenario = "URBAN_MICROCELL"
**.ue[54].cellularNic.channelModel[*].scenario = "URBAN_MICROCELL"
**.ue[55].cellularNic.channelModel[*].scenario = "URBAN_MICROCELL"
**.ue[56].cellularNic.channelModel[*].scenario = "URBAN_MICROCELL"
**.ue[57].cellularNic.channelModel[*].scenario = "URBAN_MICROCELL"
**.ue[58].cellularNic.channelModel[*].scenario = "URBAN_MICROCELL"
**.ue[59].cellularNic.channelModel[*].scenario = "URBAN_MICROCELL"

############### Mobility ###############

# eNodeB
*.eNB0.mobility.initialX = 600.0m
*.eNB0.mobility.initialY = 200.0m
*.eNB0.mobility.initialZ = 0m
*.eNB0.mobility.initFromDisplayString = false
*.eNB1.mobility.initialX = 1400.0m
*.eNB1.mobility.initialY = 1800.0m
*.eNB1.mobility.initialZ = 0m
*.eNB1.mobility.initFromDisplayString = false
*.eNB*.mobility.constraintAreaMaxX = 4000 m
*.eNB*.mobility.constraintAreaMaxY = 4000 m
*.eNB*.mobility.constraintAreaMaxZ = inf m
*.eNB*.mobility.constraintAreaMinX = 0 m
*.eNB*.mobility.constraintAreaMinY = 0 m
*.eNB*.mobility.constraintAreaMinZ = -inf m

# UEs

*.ue[*].mobilityType = "LinearMobility"
*.ue[0].mobility.initialX = ${257.6446311435001m, 630.844m, 1071.72m, 1360.6m, 1645.6m, 2108.76m, 2555.63m, 2945.32m, 3239.54m, 3740.89m ! Slice}
*.ue[0].mobility.initialY = ${796.4429115059636m, 3146.42m, 1958.95m, 258.42m, 1553.66m, 3090.71m, 733.471m, 1811.21m, 3572.95m, 1220.5m ! Slice}
*.ue[0].mobility.initialZ = ${0m, 0.0m, 0.0m, 0.0m, 0.0m, 0.0m, 0.0m, 0.0m, 0.0m, 0.0m ! Slice}
*.ue[0].mobility.initFromDisplayString = false
*.ue[1].mobility.initialX = ${576.214055682387m, 2136.02m, 2805.85m, 1246.1m, 864.621m, 3083.73m, 1498.69m, 950.899m, 3498.68m, 1161.66m ! Slice}
*.ue[1].mobility.initialY = ${742.8394896829617m, 2048.95m, 3312.26m, 2084.24m, 495.455m, 1608.49m, 3258.63m, 1762.59m, 903.208m, 3348.31m ! Slice}
*.ue[1].mobility.initialZ = ${0m, 0.0m, 0.0m, 0.0m, 0.0m, 0.0m, 0.0m, 0.0m, 0.0m, 0.0m ! Slice}
*.ue[1].mobility.initFromDisplayString = false
*.ue[2].mobility.initialX = ${734.3714797856506m, 3187.08m, 1907.67m, 590.704m, 2549.13m, 3018.09m, 2180.67m, 672.162m, 3616.91m, 699.363m ! Slice}
*.ue[2].mobility.initialY = ${597.838328337141m, 345.305m, 57.3069m, 181.008m, 412.696m, 460.98m, 729.721m, 904.715m, 1335.71m, 1787.24m ! Slice}
*.ue[2].mobility.initialZ = ${0m, 0.0m, 0.0m, 0.0m, 0.0m, 0.0m, 0.0m, 0.0m, 0.0m, 0.0m ! Slice}
*.ue[2].mobility.initFromDisplayString = false
*.ue[3].mobility.initialX = ${586.3041470075406m, 1273.22m, 1730.37m, 2459.47m, 2970.23m, 3980.01m, 3233.6m, 2583.97m, 1967.32m, 1523.97m ! Slice}
*.ue[3].mobility.initialY = ${751.897854362802m, 3135.41m, 3158.38m, 748.427m, 1120.55m, 2910.62m, 743.69m, 1606.81m, 3650.17m, 2784.13m ! Slice}
*.ue[3].mobility.initialZ = ${0m, 0.0m, 0.0m, 0.0m, 0.0m, 0.0m, 0.0m, 0.0m, 0.0m, 0.0m ! Slice}
*.ue[3].mobility.initFromDisplayString = false
*.ue[4].mobility.initialX = ${726.9067898577142m, 1978.77m, 2066.26m, 62.0212m, 3846.68m, 924.928m, 1915.01m, 2261.94m, 1110.97m, 3728.06m ! Slice}
*.ue[4].mobility.initialY = ${458.884288253328m, 261.908m, 349.168m, 695.271m, 1290.77m, 1798.75m, 2226.41m, 2786.1m, 3305.98m, 3789.65m ! Slice}
*.ue[4].mobility.initialZ = ${0m, 0.0m, 0.0m, 0.0m, 0.0m, 0.0m, 0.0m, 0.0m, 0.0m, 0.0m ! Slice}
*.ue[4].mobility.initFromDisplayString = false
*.ue[5].mobility.initialX = ${883.679410034063m, 1976.4m, 3066.73m, 3296.51m, 3189.55m, 2527.92m, 1827.67m, 1224.27m, 708.092m, 1422.24m ! Slice}
*.ue[5].mobility.initialY = ${678.7281620967849m, 3340.19m, 1931.34m, 1444.52m, 2189.11m, 3854.36m, 2440.09m, 970.412m, 3333.81m, 2447.0m ! Slice}
*.ue[5].mobility.initialZ = ${0m, 0.0m, 0.0m, 0.0m, 0.0m, 0.0m, 0.0m, 0.0m, 0.0m, 0.0m ! Slice}
*.ue[5].mobility.initFromDisplayString = false
*.ue[6].mobility.initialX = ${837.0865031807473m, 308.108m, 3495.97m, 1689.51m, 1351.04m, 1728.68m, 3841.86m, 2115.72m, 3181.77m, 1069.87m ! Slice}
*.ue[6].mobility.initialY = ${784.1979308024208m, 612.764m, 722.659m, 1522.93m, 2423.71m, 2640.0m, 3324.84m, 3986.76m, 2420.49m, 1125.53m ! Slice}
*.ue[6].mobility.initialZ = ${0m, 0.0m, 0.0m, 0.0m, 0.0m, 0.0m, 0.0m, 0.0m, 0.0m, 0.0m ! Slice}
*.ue[6].mobility.initFromDisplayString = false
*.ue[7].mobility.initialX = ${875.5494794647489m, 2356.21m, 2237.27m, 679.076m, 1162.99m, 3584.55m, 1698.51m, 810.744m, 2992.74m, 1932.78m ! Slice}
*.ue[7].mobility.initialY = ${415.5889141418398m, 174.021m, 362.917m, 635.967m, 919.874m, 1331.57m, 1769.8m, 2136.58m, 2540.21m, 3017.11m ! Slice}
*.ue[7].mobility.initialZ = ${0m, 0.0m, 0.0m, 0.0m, 0.0m, 0.0m, 0.0m, 0.0m, 0.0m, 0.0m ! Slice}
*.ue[7].mobility.initFromDisplayString = false
*.ue[8].mobility.initialX = ${308.12089436568687m, 1196.52m, 1853.29m, 2371.41m, 2629.87m, 3713.07m, 3634.51m, 2949.08m, 2425.55m, 1988.67m ! Slice}
*.ue[8].mobility.initialY = ${956.1643935569064m, 2472.61m, 3053.39m, 1437.01m, 495.121m, 3534.51m, 2269.68m, 745.902m, 2235.69m, 3827.78m ! Slice}
*.ue[8].mobility.initialZ = ${0m, 0.0m, 0.0m, 0.0m, 0.0m, 0.0m, 0.0m, 0.0m, 0.0m, 0.0m ! Slice}
*.ue[8].mobility.initFromDisplayString = false
*.ue[9].mobility.initialX = ${413.9861297149363m, 629.203m, 978.138m, 1243.06m, 1448.1m, 1618.35m, 1998.81m, 2464.7m, 2749.02m, 3018.6m ! Slice}
*.ue[9].mobility.initialY = ${1013.6589808557034m, 1147.43m, 3880.18m, 1469.54m, 643.879m, 1945.4m, 2212.06m, 2091.7m, 3766.07m, 1313.1m ! Slice}
*.ue[9].mobility.initialZ = ${0m, 0.0m, 0.0m, 0.0m, 0.0m, 0.0m, 0.0m, 0.0m, 0.0m, 0.0m ! Slice}
*.ue[9].mobility.initFromDisplayString = false
*.ue[10].mobility.initialX = ${799.8241416526547m, 607.651m, 1936.37m, 3347.58m, 1988.04m, 232.223m, 1405.49m, 3702.97m, 1432.15m, 1298.91m ! Slice}
*.ue[10].mobility.initialY = ${923.9885993029213m, 2644.33m, 3069.85m, 85.0603m, 2317.56m, 2970.61m, 1018.05m, 3143.95m, 1764.71m, 1864.2m ! Slice}
*.ue[10].mobility.initialZ = ${0m, 0.0m, 0.0m, 0.0m, 0.0m, 0.0m, 0.0m, 0.0m, 0.0m, 0.0m ! Slice}
*.ue[10].mobility.initFromDisplayString = false
*.ue[11].mobility.initialX = ${541.8111869362751m, 1189.82m, 2434.16m, 3502.62m, 3499.39m, 2877.07m, 1944.88m, 722.313m, 287.977m, 260.712m ! Slice}
*.ue[11].mobility.initialY = ${1089.4606529755747m, 3030.78m, 1090.66m, 2129.79m, 2940.54m, 1186.26m, 1803.06m, 2309.79m, 62.0843m, 214.024m ! Slice}
*.ue[11].mobility.initialZ = ${0m, 0.0m, 0.0m, 0.0m, 0.0m, 0.0m, 0.0m, 0.0m, 0.0m, 0.0m ! Slice}
*.ue[11].mobility.initFromDisplayString = false
*.ue[12].mobility.initialX = ${696.4062835731409m, 2831.24m, 1772.28m, 1757.4m, 3631.94m, 2397.7m, 842.972m, 3189.18m, 2374.25m, 1825.29m ! Slice}
*.ue[12].mobility.initialY = ${875.4443815797569m, 1004.18m, 3392.22m, 1831.99m, 144.071m, 1403.38m, 3659.31m, 2088.64m, 249.704m, 2842.26m ! Slice}
*.ue[12].mobility.initialZ = ${0m, 0.0m, 0.0m, 0.0m, 0.0m, 0.0m, 0.0m, 0.0m, 0.0m, 0.0m ! Slice}
*.ue[12].mobility.initFromDisplayString = false
*.ue[13].mobility.initialX = ${853.9703529639015m, 1702.69m, 1950.67m, 453.915m, 2868.09m, 1510.95m, 2093.85m, 3291.97m, 1549.49m, 1641.09m ! Slice}
*.ue[13].mobility.initialY = ${955.2766271061165m, 1969.77m, 3703.29m, 3449.6m, 2084.66m, 592.547m, 987.757m, 1521.57m, 2814.92m, 3892.85m ! Slice}
*.ue[13].mobility.initialZ = ${0m, 0.0m, 0.0m, 0.0m, 0.0m, 0.0m, 0.0m, 0.0m, 0.0m, 0.0m ! Slice}
*.ue[13].mobility.initFromDisplayString = false
*.ue[14].mobility.initialX = ${907.9476710466981m, 1573.52m, 2515.76m, 3941.72m, 3050.12m, 2205.66m, 869.095m, 308.786m, 430.408m, 1372.81m ! Slice}
*.ue[14].mobility.initialY = ${955.5881818027468m, 2784.78m, 2423.26m, 1765.44m, 3935.94m, 1615.09m, 2335.48m, 3598.1m, 2459.72m, 219.637m ! Slice}
*.ue[14].mobility.initialZ = ${0m, 0.0m, 0.0m, 0.0m, 0.0m, 0.0m, 0.0m, 0.0m, 0.0m, 0.0m ! Slice}
*.ue[14].mobility.initFromDisplayString = false
*.ue[15].mobility.initialX = ${907.3733410814916m, 2563.95m, 2808.39m, 136.263m, 1872.89m, 3880.27m, 3050.9m, 118.544m, 3378.69m, 2832.1m ! Slice}
*.ue[15].mobility.initialY = ${905.1543794286193m, 1303.49m, 1875.11m, 2643.38m, 3060.96m, 3601.22m, 3800.65m, 3457.57m, 2653.32m, 2235.99m ! Slice}
*.ue[15].mobility.initialZ = ${0m, 0.0m, 0.0m, 0.0m, 0.0m, 0.0m, 0.0m, 0.0m, 0.0m, 0.0m ! Slice}
*.ue[15].mobility.initFromDisplayString = false
*.ue[16].mobility.initialX = ${877.1944953207967m, 2971.14m, 3137.27m, 1021.91m, 3292.31m, 2246.97m, 2083.85m, 3274.98m, 957.108m, 1698.02m ! Slice}
*.ue[16].mobility.initialY = ${925.9984671342027m, 1489.54m, 1955.76m, 2949.5m, 3729.0m, 3592.64m, 2556.23m, 2122.64m, 808.719m, 62.2578m ! Slice}
*.ue[16].mobility.initialZ = ${0m, 0.0m, 0.0m, 0.0m, 0.0m, 0.0m, 0.0m, 0.0m, 0.0m, 0.0m ! Slice}
*.ue[16].mobility.initFromDisplayString = false
*.ue[17].mobility.initialX = ${834.5356960679509m, 16.0758m, 742.85m, 1629.91m, 2117.49m, 3293.43m, 3338.4m, 2459.42m, 1774.83m, 1413.54m ! Slice}
*.ue[17].mobility.initialY = ${982.4963362934157m, 3941.06m, 1088.39m, 2407.8m, 3921.36m, 1249.88m, 2189.46m, 1410.38m, 3518.66m, 3076.17m ! Slice}
*.ue[17].mobility.initialZ = ${0m, 0.0m, 0.0m, 0.0m, 0.0m, 0.0m, 0.0m, 0.0m, 0.0m, 0.0m ! Slice}
*.ue[17].mobility.initFromDisplayString = false
*.ue[18].mobility.initialX = ${887.053915001601m, 453.104m, 1712.94m, 3543.27m, 3072.88m, 1630.3m, 482.638m, 1015.79m, 2708.82m, 3772.67m ! Slice}
*.ue[18].mobility.initialY = ${884.0733829984642m, 1438.0m, 3912.9m, 710.159m, 1816.53m, 3091.0m, 1378.0m, 1484.08m, 2993.51m, 1527.01m ! Slice}
*.ue[18].mobility.initialZ = ${0m, 0.0m, 0.0m, 0.0m, 0.0m, 0.0m, 0.0m, 0.0m, 0.0m, 0.0m ! Slice}
*.ue[18].mobility.initFromDisplayString = false
*.ue[19].mobility.initialX = ${848.5884305161463m, 2529.12m, 1299.97m, 2099.7m, 2328.98m, 1453.85m, 3306.83m, 1288.5m, 2559.54m, 3956.48m ! Slice}
*.ue[19].mobility.initialY = ${885.4201328203047m, 1162.06m, 1806.37m, 2370.66m, 2937.11m, 3541.76m, 3923.91m, 3523.24m, 2916.44m, 2637.91m ! Slice}
*.ue[19].mobility.initialZ = ${0m, 0.0m, 0.0m, 0.0m, 0.0m, 0.0m, 0.0m, 0.0m, 0.0m, 0.0m ! Slice}
*.ue[19].mobility.initFromDisplayString = false
*.ue[20].mobility.initialX = ${911.9951509357388m, 1399.52m, 3207.96m, 1642.67m, 2187.18m, 3966.93m, 1329.42m, 1948.31m, 3357.84m, 800.808m ! Slice}
*.ue[20].mobility.initialY = ${813.2489082044402m, 1740.91m, 2608.32m, 3928.47m, 2476.92m, 1546.56m, 397.396m, 994.35m, 2034.27m, 3318.54m ! Slice}
*.ue[20].mobility.initialZ = ${0m, 0.0m, 0.0m, 0.0m, 0.0m, 0.0m, 0.0m, 0.0m, 0.0m, 0.0m ! Slice}
*.ue[20].mobility.initFromDisplayString = false
*.ue[21].mobility.initialX = ${822.9428950699986m, 1432.59m, 3978.55m, 1816.06m, 650.28m, 2077.23m, 3164.32m, 2891.34m, 602.583m, 1901.65m ! Slice}
*.ue[21].mobility.initialY = ${1063.8144388186947m, 1793.47m, 2734.33m, 519.925m, 2101.18m, 3860.26m, 978.328m, 232.13m, 2543.61m, 2341.35m ! Slice}
*.ue[21].mobility.initialZ = ${0m, 0.0m, 0.0m, 0.0m, 0.0m, 0.0m, 0.0m, 0.0m, 0.0m, 0.0m ! Slice}
*.ue[21].mobility.initFromDisplayString = false
*.ue[22].mobility.initialX = ${850.286679952849m, 2542.25m, 3120.48m, 1346.27m, 117.468m, 2982.3m, 2973.39m, 1975.81m, 1117.92m, 850.041m ! Slice}
*.ue[22].mobility.initialY = ${936.4865959269275m, 1240.67m, 3503.49m, 2061.5m, 666.117m, 3085.0m, 2651.6m, 1443.13m, 434.2m, 1704.14m ! Slice}
*.ue[22].mobility.initialZ = ${0m, 0.0m, 0.0m, 0.0m, 0.0m, 0.0m, 0.0m, 0.0m, 0.0m, 0.0m ! Slice}
*.ue[22].mobility.initFromDisplayString = false
*.ue[23].mobility.initialX = ${854.1554601964519m, 1225.46m, 3365.81m, 557.428m, 2523.15m, 2883.64m, 273.73m, 1906.52m, 2295.01m, 961.803m ! Slice}
*.ue[23].mobility.initialY = ${916.40235514491m, 664.631m, 359.783m, 233.174m, 578.489m, 894.12m, 1342.79m, 1558.16m, 2007.71m, 2427.49m ! Slice}
*.ue[23].mobility.initialZ = ${0m, 0.0m, 0.0m, 0.0m, 0.0m, 0.0m, 0.0m, 0.0m, 0.0m, 0.0m ! Slice}
*.ue[23].mobility.initFromDisplayString = false
*.ue[24].mobility.initialX = ${860.1321302370071m, 2196.32m, 1678.06m, 2041.45m, 3161.37m, 2440.69m, 68.4037m, 2014.58m, 2811.39m, 295.991m ! Slice}
*.ue[24].mobility.initialY = ${881.0426608453699m, 318.878m, 1328.88m, 2846.79m, 3452.93m, 3499.35m, 2482.56m, 1663.76m, 479.746m, 1050.36m ! Slice}
*.ue[24].mobility.initialZ = ${0m, 0.0m, 0.0m, 0.0m, 0.0m, 0.0m, 0.0m, 0.0m, 0.0m, 0.0m ! Slice}
*.ue[24].mobility.initFromDisplayString = false
*.ue[25].mobility.initialX = ${821.490158152895m, 363.509m, 1348.22m, 2013.51m, 3766.0m, 2531.5m, 845.104m, 409.609m, 767.746m, 2510.57m ! Slice}
*.ue[25].mobility.initialY = ${881.3022468177672m, 2888.77m, 2673.77m, 1542.95m, 2188.31m, 2420.61m, 1056.3m, 2771.0m, 3740.99m, 796.441m ! Slice}
*.ue[25].mobility.initialZ = ${0m, 0.0m, 0.0m, 0.0m, 0.0m, 0.0m, 0.0m, 0.0m, 0.0m, 0.0m ! Slice}
*.ue[25].mobility.initFromDisplayString = false
*.ue[26].mobility.initialX = ${803.0206346792229m, 2052.67m, 3403.41m, 3643.21m, 2132.15m, 582.003m, 762.811m, 1892.48m, 3664.75m, 2428.41m ! Slice}
*.ue[26].mobility.initialY = ${955.2240301593583m, 925.322m, 2560.47m, 3724.51m, 2074.38m, 11.8761m, 1690.41m, 3333.59m, 2169.87m, 671.105m ! Slice}
*.ue[26].mobility.initialZ = ${0m, 0.0m, 0.0m, 0.0m, 0.0m, 0.0m, 0.0m, 0.0m, 0.0m, 0.0m ! Slice}
*.ue[26].mobility.initFromDisplayString = false
*.ue[27].mobility.initialX = ${867.3128075666497m, 3416.34m, 1720.33m, 1063.58m, 2219.09m, 3240.98m, 1438.28m, 2242.47m, 1035.79m, 3518.55m ! Slice}
*.ue[27].mobility.initialY = ${962.1436741429592m, 103.844m, 1276.14m, 2339.99m, 2948.71m, 3873.13m, 2305.52m, 457.911m, 1002.6m, 2183.24m ! Slice}
*.ue[27].mobility.initialZ = ${0m, 0.0m, 0.0m, 0.0m, 0.0m, 0.0m, 0.0m, 0.0m, 0.0m, 0.0m ! Slice}
*.ue[27].mobility.initFromDisplayString = false
*.ue[28].mobility.initialX = ${903.761101362374m, 2900.82m, 3462.49m, 1966.66m, 887.007m, 1991.4m, 3570.05m, 1914.92m, 591.115m, 2032.21m ! Slice}
*.ue[28].mobility.initialY = ${960.026966746708m, 3771.32m, 2171.69m, 181.011m, 3692.43m, 2247.19m, 24.8896m, 3439.69m, 2580.82m, 1429.73m ! Slice}
*.ue[28].mobility.initialZ = ${0m, 0.0m, 0.0m, 0.0m, 0.0m, 0.0m, 0.0m, 0.0m, 0.0m, 0.0m ! Slice}
*.ue[28].mobility.initFromDisplayString = false
*.ue[29].mobility.initialX = ${914.5483166209871m, 656.144m, 1528.53m, 2332.71m, 3673.68m, 2844.76m, 448.662m, 1205.71m, 2855.03m, 3106.78m ! Slice}
*.ue[29].mobility.initialY = ${933.8790493790565m, 1716.4m, 3402.93m, 3085.68m, 789.145m, 1882.82m, 1512.16m, 1252.84m, 3958.76m, 769.053m ! Slice}
*.ue[29].mobility.initialZ = ${0m, 0.0m, 0.0m, 0.0m, 0.0m, 0.0m, 0.0m, 0.0m, 0.0m, 0.0m ! Slice}
*.ue[29].mobility.initFromDisplayString = false