#Function: ilp_sliced_ini
#Parameters:
#   filename: ../Network_CCOpMv/_5G/simulations/disaster_percentage_0/micro_power_30/chosen_seed_9/ilp_single_sliced_10.ini
#   seed: 9
#   size_y: 4000
#   size_x: 4000
#   size_sector: 400
#   n_macros: 1
#   min_sinr: 10
#   repetitions: 1
#   multi_carriers: False
#   slice_time: 1
#   is_micro: True
#   p_size: 1428
#   app: video
#   target_f: 10
#   extra_config_name: video
#   result_dir: Solutions/disaster_percentage_0/micro_power_30/chosen_seed_9
#   mode: single
#   network_name: ILPSingleNet10
#   net_dir: _5G/networks/disaster_percentage_0/micro_power_30/chosen_seed_9
#   cmdenv_config: True
#   micro_power: 30
#   xml_filename: ilp_move_users-9.sna
#   num_bands: [100]
#Extra = Using 1 macros with 60 ues each. Slicing 10s in 10 different simulations. Using microcells.
[General]
sim-time-limit = 10s

############### Statistics ###############
output-scalar-file = ${resultdir}/${configname}/${repetition}.sca
output-vector-file = ${resultdir}/${configname}/${repetition}.vec
**.vector-recording = false
eventlog-file = ${resultdir}/${configname}/${repetition}.elog
seed-set = ${repetition}

[Config ilp_single_sliced_10_video]
network = _5G.networks.disaster_percentage_0.micro_power_30.chosen_seed_9.ILPSingleNet10
sim-time-limit = 1s
repeat = 1
seed-set = ${repetition}
num-rngs = 2
seed-1-mt = 9

############### Outputs ###############
**.eNB*.cellularNic.channelModel[*].idRcvdSinr:vector.vector-recording = true
**.eNB*.cellularNic.channelModel[*].rcvdSinr:vector.vector-recording = true
**.app[*].throughput:vector.vector-recording = true
**.app[*].endToEndDelay:vector.vector-recording = true
output-scalar-file = ${resultdir}/ilp_single_sliced_10_video/10-${RBs}-${repetition}-${Slice}.sca
output-vector-file = ${resultdir}/ilp_single_sliced_10_video/10-${RBs}-${repetition}-${Slice}.vec
**.vector-recording = false
eventlog-file = ${resultdir}/ilp_single_sliced_10_video/10-${RBs}-${repetition}-${Slice}.elog

############### Cmdenv ###############
cmdenv-performance-display = false
cmdenv-redirect-output = true
cmdenv-output-file = ${resultdir}/ilp_single_sliced_10_video-cmdout/10-${RBs}-${repetition}-${Slice}.out

############### Snapshots ###############
snapshot-file = ../../../Functions/ilp_single_sliced_10_video-RBs_${RBs}-Slice_${Slice}-10-${repetition}.sna
**.snapshotter.snapshot = false
**.snapshotter.delay = 1.0

############### Transmission Power ###############
**.ueTxPower = 24
**.eNodeBTxPower = 46
**.microTxPower = 30
**.cellularNic.phy.txDirection = "OMNI"

############### Channel Control ###############
**.numComponentCarriers = 1
*.carrierAggregation.componentCarrier[0].carrierFrequency = 0.7GHz

############### Channel Model ###############
**.cellularNic.LteChannelModelType = "MoreInfoChannelModel"
**.cellularNic.channelModel[*].building_height = 20
**.cellularNic.channelModel[*].nodeb_height = 18
**.cellularNic.channelModel[*].ue_height = 1.5
**.cellularNic.channelModel[*].street_wide = 20
**.cellularNic.channelModel[*].fading_type = "JAKES"
**.cellularNic.channelModel[*].extCell_interference = false
**.cellularNic.channelModel[*].antennGainEnB = 18
**.cellularNic.channelModel[*].antennGainMicro = 5
**.cellularNic.channelModel[*].antennaGainUe = -1
**.cellularNic.channelModel[*].bs_noise_figure = 9
**.cellularNic.channelModel[*].cable_loss = 2
**.cellularNic.channelModel[*].componentCarrierIndex = 0
**.cellularNic.channelModel[*].correlation_distance = 50
**.cellularNic.channelModel[*].d2d_interference = true
**.cellularNic.channelModel[*].delay_rms = 363e-9
**.cellularNic.channelModel[*].downlink_interference = false
**.cellularNic.channelModel[*].dynamic_los = false
**.cellularNic.channelModel[*].enable_extCell_los = true
**.cellularNic.channelModel[*].fading = true
**.cellularNic.channelModel[*].fading_paths = 6
**.cellularNic.channelModel[*].fixed_los = false
**.cellularNic.channelModel[*].harqReduction = 0.2
**.cellularNic.channelModel[*].inside_building = false
**.cellularNic.channelModel[*].lambdaMaxTh = 0.2
**.cellularNic.channelModel[*].lambdaMinTh = 0.02
**.cellularNic.channelModel[*].lambdaRatioTh = 20
**.cellularNic.channelModel[*].rsrqScale = 1.0
**.cellularNic.channelModel[*].rsrqShift = 22
**.cellularNic.channelModel[*].shadowing = true
**.cellularNic.channelModel[*].targetBler = 0.01
**.cellularNic.channelModel[*].thermalNoise = -104.5
**.cellularNic.channelModel[*].tolerateMaxDistViolation = true
**.cellularNic.channelModel[*].ue_noise_figure = 7
**.cellularNic.channelModel[*].uplink_interference = false
**.cellularNic.channelModel[*].useRsrqFromLog = false
**.cellularNic.channelModel[*].useTorus = false
**.cellularNic.channelModel[*].num_slice = ${Slice= 0, 1, 2, 3, 4, 5, 6, 7, 8, 9}
**.cellularNic.channelModel[*].num_enbs = ${NumEnbs= 2, 5, 5, 5, 5, 5, 5, 5, 5, 5 ! Slice}

############### Resource Blocks ###############
**.numBands = ${RBs= 100}

############### eNBs ###############
**.eNB0.cellInfo.microCell = true
**.eNB1.cellInfo.microCell = true
**.eNB2.cellInfo.microCell = true
**.eNB3.cellInfo.microCell = true
**.eNB4.cellInfo.microCell = true

############### UEs ###############
**.numUe = 60

# Conecting UEs to eNodeB
**.ue[0].macCellId = ${3, 3, 3, 1, 3, 3, 1, 5, 2, 2 ! Slice}
**.ue[0].masterId = ${3, 3, 3, 1, 3, 3, 1, 5, 2, 2 ! Slice}
**.ue[1].macCellId = ${3, 1, 1, 5, 4, 3, 2, 2, 4, 3 ! Slice}
**.ue[1].masterId = ${3, 1, 1, 5, 4, 3, 2, 2, 4, 3 ! Slice}
**.ue[2].macCellId = ${3, 1, 1, 3, 2, 4, 4, 4, 5, 3 ! Slice}
**.ue[2].masterId = ${3, 1, 1, 3, 2, 4, 4, 4, 5, 3 ! Slice}
**.ue[3].macCellId = ${3, 2, 3, 4, 2, 1, 3, 4, 5, 1 ! Slice}
**.ue[3].masterId = ${3, 2, 3, 4, 2, 1, 3, 4, 5, 1 ! Slice}
**.ue[4].macCellId = ${3, 3, 3, 3, 2, 2, 2, 4, 3, 1 ! Slice}
**.ue[4].masterId = ${3, 3, 3, 3, 2, 2, 2, 4, 3, 1 ! Slice}
**.ue[5].macCellId = ${3, 3, 1, 5, 2, 2, 4, 3, 1, 5 ! Slice}
**.ue[5].masterId = ${3, 3, 1, 5, 2, 2, 4, 3, 1, 5 ! Slice}
**.ue[6].macCellId = ${3, 1, 5, 4, 1, 2, 5, 4, 3, 2 ! Slice}
**.ue[6].masterId = ${3, 1, 5, 4, 1, 2, 5, 4, 3, 2 ! Slice}
**.ue[7].macCellId = ${3, 3, 4, 3, 2, 5, 2, 3, 3, 2 ! Slice}
**.ue[7].masterId = ${3, 3, 4, 3, 2, 5, 2, 3, 3, 2 ! Slice}
**.ue[8].macCellId = ${3, 1, 2, 5, 3, 2, 2, 4, 4, 2 ! Slice}
**.ue[8].masterId = ${3, 1, 2, 5, 3, 2, 2, 4, 4, 2 ! Slice}
**.ue[9].macCellId = ${3, 2, 3, 5, 5, 4, 4, 5, 4, 5 ! Slice}
**.ue[9].masterId = ${3, 2, 3, 5, 5, 4, 4, 5, 4, 5 ! Slice}
**.ue[10].macCellId = ${3, 2, 3, 4, 5, 1, 1, 5, 4, 3 ! Slice}
**.ue[10].masterId = ${3, 2, 3, 4, 5, 1, 1, 5, 4, 3 ! Slice}
**.ue[11].macCellId = ${3, 1, 3, 3, 3, 1, 5, 2, 2, 4 ! Slice}
**.ue[11].masterId = ${3, 1, 3, 3, 3, 1, 5, 2, 2, 4 ! Slice}
**.ue[12].macCellId = ${3, 2, 5, 2, 4, 3, 1, 4, 2, 5 ! Slice}
**.ue[12].masterId = ${3, 2, 5, 2, 4, 3, 1, 4, 2, 5 ! Slice}
**.ue[13].macCellId = ${3, 1, 5, 5, 2, 3, 4, 5, 1, 4 ! Slice}
**.ue[13].masterId = ${3, 1, 5, 5, 2, 3, 4, 5, 1, 4 ! Slice}
**.ue[14].macCellId = ${3, 2, 3, 3, 5, 5, 3, 1, 2, 3 ! Slice}
**.ue[14].masterId = ${3, 2, 3, 3, 5, 5, 3, 1, 2, 3 ! Slice}
**.ue[15].macCellId = ${3, 1, 2, 1, 2, 3, 4, 5, 4, 3 ! Slice}
**.ue[15].masterId = ${3, 1, 2, 1, 2, 3, 4, 5, 4, 3 ! Slice}
**.ue[16].macCellId = ${3, 2, 2, 2, 4, 1, 3, 3, 4, 5 ! Slice}
**.ue[16].masterId = ${3, 2, 2, 2, 4, 1, 3, 3, 4, 5 ! Slice}
**.ue[17].macCellId = ${3, 4, 2, 1, 5, 3, 3, 2, 2, 4 ! Slice}
**.ue[17].masterId = ${3, 4, 2, 1, 5, 3, 3, 2, 2, 4 ! Slice}
**.ue[18].macCellId = ${3, 2, 3, 2, 4, 3, 5, 4, 4, 5 ! Slice}
**.ue[18].masterId = ${3, 2, 3, 2, 4, 3, 5, 4, 4, 5 ! Slice}
**.ue[19].macCellId = ${3, 2, 4, 3, 1, 2, 5, 2, 3, 4 ! Slice}
**.ue[19].masterId = ${3, 2, 4, 3, 1, 2, 5, 2, 3, 4 ! Slice}
**.ue[20].macCellId = ${3, 1, 3, 3, 1, 4, 1, 3, 3, 1 ! Slice}
**.ue[20].masterId = ${3, 1, 3, 3, 1, 4, 1, 3, 3, 1 ! Slice}
**.ue[21].macCellId = ${3, 3, 2, 1, 2, 1, 1, 1, 2, 1 ! Slice}
**.ue[21].masterId = ${3, 3, 2, 1, 2, 1, 1, 1, 2, 1 ! Slice}
**.ue[22].macCellId = ${3, 2, 2, 4, 3, 2, 4, 3, 2, 3 ! Slice}
**.ue[22].masterId = ${3, 2, 2, 4, 3, 2, 4, 3, 2, 3 ! Slice}
**.ue[23].macCellId = ${3, 5, 2, 5, 5, 2, 5, 5, 1, 3 ! Slice}
**.ue[23].masterId = ${3, 5, 2, 5, 5, 2, 5, 5, 1, 3 ! Slice}
**.ue[24].macCellId = ${3, 4, 5, 2, 5, 3, 3, 3, 3, 5 ! Slice}
**.ue[24].masterId = ${3, 4, 5, 2, 5, 3, 3, 3, 3, 5 ! Slice}
**.ue[25].macCellId = ${3, 3, 4, 2, 4, 3, 1, 2, 5, 2 ! Slice}
**.ue[25].masterId = ${3, 3, 4, 2, 4, 3, 1, 2, 5, 2 ! Slice}
**.ue[26].macCellId = ${2, 2, 1, 3, 3, 2, 5, 1, 3, 3 ! Slice}
**.ue[26].masterId = ${2, 2, 1, 3, 3, 2, 5, 1, 3, 3 ! Slice}
**.ue[27].macCellId = ${2, 1, 2, 2, 1, 1, 2, 1, 1, 2 ! Slice}
**.ue[27].masterId = ${2, 1, 2, 2, 1, 1, 2, 1, 1, 2 ! Slice}
**.ue[28].macCellId = ${2, 3, 3, 2, 3, 5, 3, 5, 4, 4 ! Slice}
**.ue[28].masterId = ${2, 3, 3, 2, 3, 5, 3, 5, 4, 4 ! Slice}
**.ue[29].macCellId = ${2, 3, 4, 5, 5, 4, 3, 2, 1, 2 ! Slice}
**.ue[29].masterId = ${2, 3, 4, 5, 5, 4, 3, 2, 1, 2 ! Slice}
**.ue[30].macCellId = ${2, 4, 1, 5, 2, 3, 3, 1, 2, 5 ! Slice}
**.ue[30].masterId = ${2, 4, 1, 5, 2, 3, 3, 1, 2, 5 ! Slice}
**.ue[31].macCellId = ${2, 3, 4, 2, 5, 3, 1, 4, 4, 2 ! Slice}
**.ue[31].masterId = ${2, 3, 4, 2, 5, 3, 1, 4, 4, 2 ! Slice}
**.ue[32].macCellId = ${2, 5, 2, 2, 5, 2, 2, 2, 2, 2 ! Slice}
**.ue[32].masterId = ${2, 5, 2, 2, 5, 2, 2, 2, 2, 2 ! Slice}
**.ue[33].macCellId = ${2, 5, 3, 1, 3, 5, 3, 1, 3, 5 ! Slice}
**.ue[33].masterId = ${2, 5, 3, 1, 3, 5, 3, 1, 3, 5 ! Slice}
**.ue[34].macCellId = ${2, 2, 1, 2, 3, 3, 4, 4, 5, 3 ! Slice}
**.ue[34].masterId = ${2, 2, 1, 2, 3, 3, 4, 4, 5, 3 ! Slice}
**.ue[35].macCellId = ${2, 5, 2, 2, 4, 3, 3, 1, 3, 5 ! Slice}
**.ue[35].masterId = ${2, 5, 2, 2, 4, 3, 3, 1, 3, 5 ! Slice}
**.ue[36].macCellId = ${2, 2, 5, 4, 2, 1, 1, 2, 5, 4 ! Slice}
**.ue[36].masterId = ${2, 2, 5, 4, 2, 1, 1, 2, 5, 4 ! Slice}
**.ue[37].macCellId = ${2, 3, 2, 2, 4, 5, 4, 4, 5, 4 ! Slice}
**.ue[37].masterId = ${2, 3, 2, 2, 4, 5, 4, 4, 5, 4 ! Slice}
**.ue[38].macCellId = ${2, 1, 1, 2, 3, 3, 5, 4, 4, 4 ! Slice}
**.ue[38].masterId = ${2, 1, 1, 2, 3, 3, 5, 4, 4, 4 ! Slice}
**.ue[39].macCellId = ${2, 1, 5, 5, 3, 1, 2, 5, 3, 1 ! Slice}
**.ue[39].masterId = ${2, 1, 5, 5, 3, 1, 2, 5, 3, 1 ! Slice}
**.ue[40].macCellId = ${2, 4, 3, 4, 2, 2, 5, 4, 1, 3 ! Slice}
**.ue[40].masterId = ${2, 4, 3, 4, 2, 2, 5, 4, 1, 3 ! Slice}
**.ue[41].macCellId = ${2, 1, 3, 4, 5, 1, 4, 5, 1, 3 ! Slice}
**.ue[41].masterId = ${2, 1, 3, 4, 5, 1, 4, 5, 1, 3 ! Slice}
**.ue[42].macCellId = ${2, 3, 5, 2, 2, 3, 4, 2, 2, 3 ! Slice}
**.ue[42].masterId = ${2, 3, 5, 2, 2, 3, 4, 2, 2, 3 ! Slice}
**.ue[43].macCellId = ${2, 3, 3, 3, 4, 2, 2, 2, 4, 3 ! Slice}
**.ue[43].masterId = ${2, 3, 3, 3, 4, 2, 2, 2, 4, 3 ! Slice}
**.ue[44].macCellId = ${2, 2, 1, 1, 2, 1, 2, 2, 1, 2 ! Slice}
**.ue[44].masterId = ${2, 2, 1, 1, 2, 1, 2, 2, 1, 2 ! Slice}
**.ue[45].macCellId = ${2, 3, 5, 4, 5, 2, 3, 2, 1, 1 ! Slice}
**.ue[45].masterId = ${2, 3, 5, 4, 5, 2, 3, 2, 1, 1 ! Slice}
**.ue[46].macCellId = ${2, 1, 1, 1, 1, 2, 3, 5, 4, 5 ! Slice}
**.ue[46].masterId = ${2, 1, 1, 1, 1, 2, 3, 5, 4, 5 ! Slice}
**.ue[47].macCellId = ${2, 5, 4, 4, 5, 2, 1, 2, 3, 5 ! Slice}
**.ue[47].masterId = ${2, 5, 4, 4, 5, 2, 1, 2, 3, 5 ! Slice}
**.ue[48].macCellId = ${2, 2, 3, 5, 3, 4, 5, 4, 4, 5 ! Slice}
**.ue[48].masterId = ${2, 2, 3, 5, 3, 4, 5, 4, 4, 5 ! Slice}
**.ue[49].macCellId = ${2, 2, 1, 2, 4, 4, 5, 3, 3, 2 ! Slice}
**.ue[49].masterId = ${2, 2, 1, 2, 4, 4, 5, 3, 3, 2 ! Slice}
**.ue[50].macCellId = ${2, 3, 3, 3, 3, 4, 3, 5, 3, 5 ! Slice}
**.ue[50].masterId = ${2, 3, 3, 3, 3, 4, 3, 5, 3, 5 ! Slice}
**.ue[51].macCellId = ${2, 3, 1, 3, 3, 3, 3, 1, 4, 4 ! Slice}
**.ue[51].masterId = ${2, 3, 1, 3, 3, 3, 3, 1, 4, 4 ! Slice}
**.ue[52].macCellId = ${3, 2, 3, 2, 3, 2, 2, 3, 2, 2 ! Slice}
**.ue[52].masterId = ${3, 2, 3, 2, 3, 2, 2, 3, 2, 2 ! Slice}
**.ue[53].macCellId = ${3, 1, 1, 5, 5, 1, 1, 5, 1, 1 ! Slice}
**.ue[53].masterId = ${3, 1, 1, 5, 5, 1, 1, 5, 1, 1 ! Slice}
**.ue[54].macCellId = ${3, 1, 4, 2, 2, 4, 1, 3, 5, 2 ! Slice}
**.ue[54].masterId = ${3, 1, 4, 2, 2, 4, 1, 3, 5, 2 ! Slice}
**.ue[55].macCellId = ${3, 2, 1, 2, 3, 4, 5, 3, 2, 1 ! Slice}
**.ue[55].masterId = ${3, 2, 1, 2, 3, 4, 5, 3, 2, 1 ! Slice}
**.ue[56].macCellId = ${3, 2, 5, 2, 2, 4, 4, 3, 3, 3 ! Slice}
**.ue[56].masterId = ${3, 2, 5, 2, 2, 4, 4, 3, 3, 3 ! Slice}
**.ue[57].macCellId = ${2, 2, 4, 3, 1, 2, 4, 3, 1, 2 ! Slice}
**.ue[57].masterId = ${2, 2, 4, 3, 1, 2, 4, 3, 1, 2 ! Slice}
**.ue[58].macCellId = ${2, 5, 4, 2, 2, 1, 1, 4, 4, 2 ! Slice}
**.ue[58].masterId = ${2, 5, 4, 2, 2, 1, 1, 4, 4, 2 ! Slice}
**.ue[59].macCellId = ${2, 1, 2, 3, 4, 4, 3, 3, 2, 1 ! Slice}
**.ue[59].masterId = ${2, 1, 2, 3, 4, 4, 3, 3, 2, 1 ! Slice}

# Scheduler
**.schedulingDisciplineUl = ${sched= "MAXCI"}
**.schedulingDisciplineDl = ${sched}

############### Scenario ###############

# eNodeBs
**.eNB0.cellularNic.channelModel[*].scenario = "URBAN_MICROCELL"
**.eNB1.cellularNic.channelModel[*].scenario = "URBAN_MICROCELL"
**.eNB2.cellularNic.channelModel[*].scenario = "URBAN_MICROCELL"
**.eNB3.cellularNic.channelModel[*].scenario = "URBAN_MICROCELL"
**.eNB4.cellularNic.channelModel[*].scenario = "URBAN_MICROCELL"

# UEs
**.ue[0].cellularNic.channelModel[*].scenario = "URBAN_MICROCELL"
**.ue[1].cellularNic.channelModel[*].scenario = "URBAN_MICROCELL"
**.ue[2].cellularNic.channelModel[*].scenario = "URBAN_MICROCELL"
**.ue[3].cellularNic.channelModel[*].scenario = "URBAN_MICROCELL"
**.ue[4].cellularNic.channelModel[*].scenario = "URBAN_MICROCELL"
**.ue[5].cellularNic.channelModel[*].scenario = "URBAN_MICROCELL"
**.ue[6].cellularNic.channelModel[*].scenario = "URBAN_MICROCELL"
**.ue[7].cellularNic.channelModel[*].scenario = "URBAN_MICROCELL"
**.ue[8].cellularNic.channelModel[*].scenario = "URBAN_MICROCELL"
**.ue[9].cellularNic.channelModel[*].scenario = "URBAN_MICROCELL"
**.ue[10].cellularNic.channelModel[*].scenario = "URBAN_MICROCELL"
**.ue[11].cellularNic.channelModel[*].scenario = "URBAN_MICROCELL"
**.ue[12].cellularNic.channelModel[*].scenario = "URBAN_MICROCELL"
**.ue[13].cellularNic.channelModel[*].scenario = "URBAN_MICROCELL"
**.ue[14].cellularNic.channelModel[*].scenario = "URBAN_MICROCELL"
**.ue[15].cellularNic.channelModel[*].scenario = "URBAN_MICROCELL"
**.ue[16].cellularNic.channelModel[*].scenario = "URBAN_MICROCELL"
**.ue[17].cellularNic.channelModel[*].scenario = "URBAN_MICROCELL"
**.ue[18].cellularNic.channelModel[*].scenario = "URBAN_MICROCELL"
**.ue[19].cellularNic.channelModel[*].scenario = "URBAN_MICROCELL"
**.ue[20].cellularNic.channelModel[*].scenario = "URBAN_MICROCELL"
**.ue[21].cellularNic.channelModel[*].scenario = "URBAN_MICROCELL"
**.ue[22].cellularNic.channelModel[*].scenario = "URBAN_MICROCELL"
**.ue[23].cellularNic.channelModel[*].scenario = "URBAN_MICROCELL"
**.ue[24].cellularNic.channelModel[*].scenario = "URBAN_MICROCELL"
**.ue[25].cellularNic.channelModel[*].scenario = "URBAN_MICROCELL"
**.ue[26].cellularNic.channelModel[*].scenario = "URBAN_MICROCELL"
**.ue[27].cellularNic.channelModel[*].scenario = "URBAN_MICROCELL"
**.ue[28].cellularNic.channelModel[*].scenario = "URBAN_MICROCELL"
**.ue[29].cellularNic.channelModel[*].scenario = "URBAN_MICROCELL"
**.ue[30].cellularNic.channelModel[*].scenario = "URBAN_MICROCELL"
**.ue[31].cellularNic.channelModel[*].scenario = "URBAN_MICROCELL"
**.ue[32].cellularNic.channelModel[*].scenario = "URBAN_MICROCELL"
**.ue[33].cellularNic.channelModel[*].scenario = "URBAN_MICROCELL"
**.ue[34].cellularNic.channelModel[*].scenario = "URBAN_MICROCELL"
**.ue[35].cellularNic.channelModel[*].scenario = "URBAN_MICROCELL"
**.ue[36].cellularNic.channelModel[*].scenario = "URBAN_MICROCELL"
**.ue[37].cellularNic.channelModel[*].scenario = "URBAN_MICROCELL"
**.ue[38].cellularNic.channelModel[*].scenario = "URBAN_MICROCELL"
**.ue[39].cellularNic.channelModel[*].scenario = "URBAN_MICROCELL"
**.ue[40].cellularNic.channelModel[*].scenario = "URBAN_MICROCELL"
**.ue[41].cellularNic.channelModel[*].scenario = "URBAN_MICROCELL"
**.ue[42].cellularNic.channelModel[*].scenario = "URBAN_MICROCELL"
**.ue[43].cellularNic.channelModel[*].scenario = "URBAN_MICROCELL"
**.ue[44].cellularNic.channelModel[*].scenario = "URBAN_MICROCELL"
**.ue[45].cellularNic.channelModel[*].scenario = "URBAN_MICROCELL"
**.ue[46].cellularNic.channelModel[*].scenario = "URBAN_MICROCELL"
**.ue[47].cellularNic.channelModel[*].scenario = "URBAN_MICROCELL"
**.ue[48].cellularNic.channelModel[*].scenario = "URBAN_MICROCELL"
**.ue[49].cellularNic.channelModel[*].scenario = "URBAN_MICROCELL"
**.ue[50].cellularNic.channelModel[*].scenario = "URBAN_MICROCELL"
**.ue[51].cellularNic.channelModel[*].scenario = "URBAN_MICROCELL"
**.ue[52].cellularNic.channelModel[*].scenario = "URBAN_MICROCELL"
**.ue[53].cellularNic.channelModel[*].scenario = "URBAN_MICROCELL"
**.ue[54].cellularNic.channelModel[*].scenario = "URBAN_MICROCELL"
**.ue[55].cellularNic.channelModel[*].scenario = "URBAN_MICROCELL"
**.ue[56].cellularNic.channelModel[*].scenario = "URBAN_MICROCELL"
**.ue[57].cellularNic.channelModel[*].scenario = "URBAN_MICROCELL"
**.ue[58].cellularNic.channelModel[*].scenario = "URBAN_MICROCELL"
**.ue[59].cellularNic.channelModel[*].scenario = "URBAN_MICROCELL"

############### Mobility ###############

# eNodeB
*.eNB0.mobility.initialX = 1400.0m
*.eNB0.mobility.initialY = 200.0m
*.eNB0.mobility.initialZ = 0m
*.eNB0.mobility.initFromDisplayString = false
*.eNB1.mobility.initialX = 3000.0m
*.eNB1.mobility.initialY = 1400.0m
*.eNB1.mobility.initialZ = 0m
*.eNB1.mobility.initFromDisplayString = false
*.eNB2.mobility.initialX = 1000.0m
*.eNB2.mobility.initialY = 2200.0m
*.eNB2.mobility.initialZ = 0m
*.eNB2.mobility.initFromDisplayString = false
*.eNB3.mobility.initialX = 1800.0m
*.eNB3.mobility.initialY = 3400.0m
*.eNB3.mobility.initialZ = 0m
*.eNB3.mobility.initFromDisplayString = false
*.eNB4.mobility.initialX = 3000.0m
*.eNB4.mobility.initialY = 3400.0m
*.eNB4.mobility.initialZ = 0m
*.eNB4.mobility.initFromDisplayString = false
*.eNB*.mobility.constraintAreaMaxX = 4000 m
*.eNB*.mobility.constraintAreaMaxY = 4000 m
*.eNB*.mobility.constraintAreaMaxZ = inf m
*.eNB*.mobility.constraintAreaMinX = 0 m
*.eNB*.mobility.constraintAreaMinY = 0 m
*.eNB*.mobility.constraintAreaMinZ = -inf m

# UEs

*.ue[*].mobilityType = "LinearMobility"
*.ue[0].mobility.initialX = ${1982.3758084737658m, 1357.74m, 473.644m, 412.982m, 1121.88m, 1829.89m, 2278.56m, 3151.13m, 3972.74m, 3268.53m ! Slice}
*.ue[0].mobility.initialY = ${1461.0415920425562m, 1369.82m, 2801.2m, 37.2634m, 3155.24m, 1862.03m, 143.797m, 3402.53m, 992.245m, 1961.89m ! Slice}
*.ue[0].mobility.initialZ = ${0m, 0.0m, 0.0m, 0.0m, 0.0m, 0.0m, 0.0m, 0.0m, 0.0m, 0.0m ! Slice}
*.ue[0].mobility.initFromDisplayString = false
*.ue[1].mobility.initialX = ${1938.0833890399217m, 654.092m, 1043.0m, 3451.28m, 2246.26m, 12.634m, 3125.11m, 3751.87m, 2119.71m, 697.811m ! Slice}
*.ue[1].mobility.initialY = ${1466.1050635659622m, 449.883m, 879.728m, 2799.34m, 3225.1m, 1590.56m, 1154.08m, 1673.81m, 3053.43m, 2862.84m ! Slice}
*.ue[1].mobility.initialZ = ${0m, 0.0m, 0.0m, 0.0m, 0.0m, 0.0m, 0.0m, 0.0m, 0.0m, 0.0m ! Slice}
*.ue[1].mobility.initFromDisplayString = false
*.ue[2].mobility.initialX = ${1989.0829487137803m, 2031.25m, 1439.82m, 1578.73m, 3441.38m, 2355.09m, 1025.62m, 1084.51m, 3931.35m, 880.971m ! Slice}
*.ue[2].mobility.initialY = ${1523.886007007012m, 546.585m, 764.202m, 1522.82m, 2099.45m, 2674.82m, 3486.66m, 3621.88m, 3535.6m, 2750.09m ! Slice}
*.ue[2].mobility.initialZ = ${0m, 0.0m, 0.0m, 0.0m, 0.0m, 0.0m, 0.0m, 0.0m, 0.0m, 0.0m ! Slice}
*.ue[2].mobility.initFromDisplayString = false
*.ue[3].mobility.initialX = ${1985.2441999488915m, 3899.6m, 1725.42m, 1141.88m, 3398.93m, 1949.8m, 455.371m, 1919.31m, 3772.34m, 2162.63m ! Slice}
*.ue[3].mobility.initialY = ${1507.1953767667867m, 108.43m, 2112.8m, 3381.14m, 1562.51m, 886.078m, 1936.25m, 3887.98m, 2495.76m, 760.009m ! Slice}
*.ue[3].mobility.initialZ = ${0m, 0.0m, 0.0m, 0.0m, 0.0m, 0.0m, 0.0m, 0.0m, 0.0m, 0.0m ! Slice}
*.ue[3].mobility.initFromDisplayString = false
*.ue[4].mobility.initialX = ${1973.340244464259m, 800.563m, 395.666m, 688.631m, 2403.63m, 3537.53m, 2628.35m, 1756.98m, 778.587m, 367.946m ! Slice}
*.ue[4].mobility.initialY = ${1490.742021462116m, 1781.06m, 2509.56m, 2643.69m, 2137.37m, 1503.33m, 1420.82m, 3342.4m, 2088.04m, 770.834m ! Slice}
*.ue[4].mobility.initialZ = ${0m, 0.0m, 0.0m, 0.0m, 0.0m, 0.0m, 0.0m, 0.0m, 0.0m, 0.0m ! Slice}
*.ue[4].mobility.initFromDisplayString = false
*.ue[5].mobility.initialX = ${1975.1939024941178m, 624.677m, 851.488m, 2693.18m, 3323.29m, 2506.59m, 1576.11m, 11.3919m, 758.633m, 2470.61m ! Slice}
*.ue[5].mobility.initialY = ${1497.3068721446864m, 3152.88m, 739.318m, 3436.64m, 889.427m, 1368.23m, 3217.43m, 1363.99m, 370.455m, 3755.06m ! Slice}
*.ue[5].mobility.initialZ = ${0m, 0.0m, 0.0m, 0.0m, 0.0m, 0.0m, 0.0m, 0.0m, 0.0m, 0.0m ! Slice}
*.ue[5].mobility.initFromDisplayString = false
*.ue[6].mobility.initialX = ${1935.905453494224m, 967.054m, 3457.26m, 1882.07m, 1403.46m, 2488.71m, 3377.49m, 1964.65m, 1106.31m, 3073.32m ! Slice}
*.ue[6].mobility.initialY = ${1534.6312285396066m, 921.064m, 3071.76m, 2562.78m, 135.611m, 1077.44m, 2662.96m, 3893.31m, 1577.53m, 676.911m ! Slice}
*.ue[6].mobility.initialZ = ${0m, 0.0m, 0.0m, 0.0m, 0.0m, 0.0m, 0.0m, 0.0m, 0.0m, 0.0m ! Slice}
*.ue[6].mobility.initFromDisplayString = false
*.ue[7].mobility.initialX = ${1795.9635637778422m, 409.304m, 1077.73m, 1569.14m, 2605.05m, 3885.24m, 2253.44m, 396.73m, 1368.78m, 2582.18m ! Slice}
*.ue[7].mobility.initialY = ${1586.3925589393984m, 1545.64m, 3856.75m, 2755.63m, 652.852m, 2497.54m, 2021.42m, 1881.56m, 2582.91m, 460.192m ! Slice}
*.ue[7].mobility.initialZ = ${0m, 0.0m, 0.0m, 0.0m, 0.0m, 0.0m, 0.0m, 0.0m, 0.0m, 0.0m ! Slice}
*.ue[7].mobility.initFromDisplayString = false
*.ue[8].mobility.initialX = ${1946.317213026825m, 12.0583m, 3042.4m, 3262.79m, 230.666m, 3151.85m, 2366.8m, 52.3715m, 1041.45m, 3775.85m ! Slice}
*.ue[8].mobility.initialY = ${1471.4341363863095m, 49.4447m, 2196.07m, 3347.61m, 1879.68m, 157.815m, 1898.7m, 3683.48m, 3484.96m, 1502.17m ! Slice}
*.ue[8].mobility.initialZ = ${0m, 0.0m, 0.0m, 0.0m, 0.0m, 0.0m, 0.0m, 0.0m, 0.0m, 0.0m ! Slice}
*.ue[8].mobility.initFromDisplayString = false
*.ue[9].mobility.initialX = ${1938.6090588089146m, 3785.05m, 1150.36m, 3644.94m, 2430.77m, 1166.27m, 1888.77m, 3105.6m, 1842.96m, 2982.53m ! Slice}
*.ue[9].mobility.initialY = ${1469.4900910926779m, 1776.56m, 2285.88m, 3068.73m, 3416.51m, 3940.93m, 3862.89m, 3430.97m, 3153.89m, 2407.57m ! Slice}
*.ue[9].mobility.initialZ = ${0m, 0.0m, 0.0m, 0.0m, 0.0m, 0.0m, 0.0m, 0.0m, 0.0m, 0.0m ! Slice}
*.ue[9].mobility.initFromDisplayString = false
*.ue[10].mobility.initialX = ${1964.4350937134027m, 3993.62m, 1684.03m, 1650.24m, 3537.54m, 1360.18m, 1082.0m, 3091.9m, 2274.23m, 884.586m ! Slice}
*.ue[10].mobility.initialY = ${1513.4515102337214m, 84.4425m, 1551.03m, 3694.74m, 2754.73m, 623.025m, 1058.62m, 2548.21m, 3434.49m, 1676.44m ! Slice}
*.ue[10].mobility.initialZ = ${0m, 0.0m, 0.0m, 0.0m, 0.0m, 0.0m, 0.0m, 0.0m, 0.0m, 0.0m ! Slice}
*.ue[10].mobility.initFromDisplayString = false
*.ue[11].mobility.initialX = ${1999.5716515208953m, 1449.18m, 483.061m, 666.333m, 1366.74m, 2212.39m, 3899.05m, 3068.88m, 2047.25m, 1038.68m ! Slice}
*.ue[11].mobility.initialY = ${1480.3496732241301m, 191.086m, 2081.55m, 3076.34m, 1594.98m, 670.073m, 3663.22m, 1245.66m, 1352.11m, 3509.97m ! Slice}
*.ue[11].mobility.initialZ = ${0m, 0.0m, 0.0m, 0.0m, 0.0m, 0.0m, 0.0m, 0.0m, 0.0m, 0.0m ! Slice}
*.ue[11].mobility.initFromDisplayString = false
*.ue[12].mobility.initialX = ${1872.5624811104556m, 2761.02m, 3611.36m, 3025.68m, 1496.32m, 298.046m, 668.826m, 1703.31m, 3059.61m, 3258.12m ! Slice}
*.ue[12].mobility.initialY = ${1408.816880771661m, 1196.14m, 3137.92m, 1328.96m, 2921.7m, 1990.46m, 639.799m, 3067.57m, 1256.38m, 2798.42m ! Slice}
*.ue[12].mobility.initialZ = ${0m, 0.0m, 0.0m, 0.0m, 0.0m, 0.0m, 0.0m, 0.0m, 0.0m, 0.0m ! Slice}
*.ue[12].mobility.initFromDisplayString = false
*.ue[13].mobility.initialX = ${1938.960348409247m, 49.8585m, 2505.44m, 3247.0m, 2040.51m, 65.8534m, 2277.51m, 3514.53m, 1290.16m, 1470.93m ! Slice}
*.ue[13].mobility.initialY = ${1542.391599913885m, 942.021m, 3320.16m, 2411.9m, 900.826m, 1553.21m, 3823.45m, 2823.14m, 1131.19m, 3468.17m ! Slice}
*.ue[13].mobility.initialZ = ${0m, 0.0m, 0.0m, 0.0m, 0.0m, 0.0m, 0.0m, 0.0m, 0.0m, 0.0m ! Slice}
*.ue[13].mobility.initFromDisplayString = false
*.ue[14].mobility.initialX = ${1761.055781812734m, 3745.88m, 1444.99m, 1026.7m, 2876.86m, 2959.77m, 1882.6m, 1751.45m, 2777.6m, 1065.41m ! Slice}
*.ue[14].mobility.initialY = ${1395.5694100343776m, 269.736m, 1348.78m, 2593.51m, 3775.1m, 3080.23m, 2386.8m, 525.658m, 1453.32m, 2614.49m ! Slice}
*.ue[14].mobility.initialZ = ${0m, 0.0m, 0.0m, 0.0m, 0.0m, 0.0m, 0.0m, 0.0m, 0.0m, 0.0m ! Slice}
*.ue[14].mobility.initFromDisplayString = false
*.ue[15].mobility.initialX = ${1940.2862341374573m, 1813.46m, 3015.01m, 396.319m, 2775.59m, 1091.71m, 987.681m, 3899.26m, 2039.66m, 1421.26m ! Slice}
*.ue[15].mobility.initialY = ${1459.1677380440992m, 599.04m, 192.803m, 968.085m, 1785.86m, 2799.29m, 3333.48m, 3702.67m, 3351.17m, 2562.35m ! Slice}
*.ue[15].mobility.initialZ = ${0m, 0.0m, 0.0m, 0.0m, 0.0m, 0.0m, 0.0m, 0.0m, 0.0m, 0.0m ! Slice}
*.ue[15].mobility.initFromDisplayString = false
*.ue[16].mobility.initialX = ${1961.431389909453m, 3177.53m, 3856.99m, 3328.32m, 2317.34m, 1532.86m, 220.187m, 848.803m, 2061.79m, 2841.24m ! Slice}
*.ue[16].mobility.initialY = ${1474.158101868919m, 2249.29m, 647.332m, 1919.97m, 2602.0m, 552.739m, 3581.86m, 1206.9m, 2775.55m, 2784.49m ! Slice}
*.ue[16].mobility.initialZ = ${0m, 0.0m, 0.0m, 0.0m, 0.0m, 0.0m, 0.0m, 0.0m, 0.0m, 0.0m ! Slice}
*.ue[16].mobility.initFromDisplayString = false
*.ue[17].mobility.initialX = ${1977.6946285026677m, 1713.78m, 3100.84m, 80.3279m, 3675.6m, 1052.2m, 1939.11m, 3146.5m, 2126.84m, 940.558m ! Slice}
*.ue[17].mobility.initialY = ${1507.6988657239149m, 3723.03m, 2175.21m, 663.259m, 3120.69m, 2998.01m, 1214.14m, 293.913m, 1482.82m, 3331.61m ! Slice}
*.ue[17].mobility.initialZ = ${0m, 0.0m, 0.0m, 0.0m, 0.0m, 0.0m, 0.0m, 0.0m, 0.0m, 0.0m ! Slice}
*.ue[17].mobility.initFromDisplayString = false
*.ue[18].mobility.initialX = ${1931.339414610448m, 3553.58m, 477.658m, 2915.94m, 2012.12m, 1145.19m, 2516.63m, 1160.67m, 1815.42m, 2683.8m ! Slice}
*.ue[18].mobility.initialY = ${1484.152911455427m, 1626.6m, 1970.42m, 2393.21m, 2664.99m, 2922.83m, 3076.22m, 3432.58m, 3699.69m, 3987.76m ! Slice}
*.ue[18].mobility.initialZ = ${0m, 0.0m, 0.0m, 0.0m, 0.0m, 0.0m, 0.0m, 0.0m, 0.0m, 0.0m ! Slice}
*.ue[18].mobility.initFromDisplayString = false
*.ue[19].mobility.initialX = ${1983.6128404441936m, 3222.43m, 2047.43m, 378.672m, 1098.54m, 2263.75m, 3252.63m, 2124.21m, 162.558m, 1848.55m ! Slice}
*.ue[19].mobility.initialY = ${1488.2972042182819m, 2032.93m, 3863.41m, 1886.45m, 48.9278m, 1676.56m, 3009.96m, 1456.53m, 1445.97m, 3903.84m ! Slice}
*.ue[19].mobility.initialZ = ${0m, 0.0m, 0.0m, 0.0m, 0.0m, 0.0m, 0.0m, 0.0m, 0.0m, 0.0m ! Slice}
*.ue[19].mobility.initFromDisplayString = false
*.ue[20].mobility.initialX = ${1983.901527728619m, 1876.57m, 1793.12m, 1608.03m, 1472.6m, 1286.81m, 1077.69m, 929.398m, 783.931m, 674.85m ! Slice}
*.ue[20].mobility.initialY = ${1494.7090627361815m, 890.657m, 2213.81m, 1861.82m, 805.543m, 3943.97m, 120.986m, 3003.68m, 2024.27m, 48.1764m ! Slice}
*.ue[20].mobility.initialZ = ${0m, 0.0m, 0.0m, 0.0m, 0.0m, 0.0m, 0.0m, 0.0m, 0.0m, 0.0m ! Slice}
*.ue[20].mobility.initFromDisplayString = false
*.ue[21].mobility.initialX = ${1996.5984827133275m, 570.859m, 3124.49m, 590.105m, 2734.58m, 1569.89m, 2382.81m, 1264.92m, 3590.79m, 2003.45m ! Slice}
*.ue[21].mobility.initialY = ${1491.1732757357395m, 1417.41m, 1230.49m, 984.84m, 806.89m, 623.115m, 422.94m, 198.791m, 91.5905m, 191.107m ! Slice}
*.ue[21].mobility.initialZ = ${0m, 0.0m, 0.0m, 0.0m, 0.0m, 0.0m, 0.0m, 0.0m, 0.0m, 0.0m ! Slice}
*.ue[21].mobility.initFromDisplayString = false
*.ue[22].mobility.initialX = ${1601.2050448694538m, 2789.03m, 2553.07m, 731.271m, 1043.31m, 3593.17m, 659.502m, 1853.16m, 3780.27m, 1512.39m ! Slice}
*.ue[22].mobility.initialY = ${1579.8705711979082m, 470.054m, 1881.0m, 3715.43m, 2706.27m, 244.146m, 3232.82m, 2369.94m, 594.743m, 2012.68m ! Slice}
*.ue[22].mobility.initialZ = ${0m, 0.0m, 0.0m, 0.0m, 0.0m, 0.0m, 0.0m, 0.0m, 0.0m, 0.0m ! Slice}
*.ue[22].mobility.initFromDisplayString = false
*.ue[23].mobility.initialX = ${1993.4335821265038m, 2469.07m, 3365.05m, 3747.91m, 3950.61m, 3678.12m, 2938.78m, 2566.89m, 2179.76m, 1884.38m ! Slice}
*.ue[23].mobility.initialY = ${1536.2986748451146m, 3709.53m, 2159.25m, 3695.52m, 3107.12m, 1016.2m, 3458.86m, 2497.47m, 304.816m, 1420.9m ! Slice}
*.ue[23].mobility.initialZ = ${0m, 0.0m, 0.0m, 0.0m, 0.0m, 0.0m, 0.0m, 0.0m, 0.0m, 0.0m ! Slice}
*.ue[23].mobility.initFromDisplayString = false
*.ue[24].mobility.initialX = ${1967.1835798579418m, 2327.17m, 3003.97m, 3903.34m, 2794.41m, 1922.41m, 897.381m, 428.776m, 1411.03m, 2464.22m ! Slice}
*.ue[24].mobility.initialY = ${1481.122024476494m, 2611.24m, 3011.42m, 166.271m, 3647.59m, 1613.87m, 1872.89m, 2317.75m, 1322.08m, 3843.76m ! Slice}
*.ue[24].mobility.initialZ = ${0m, 0.0m, 0.0m, 0.0m, 0.0m, 0.0m, 0.0m, 0.0m, 0.0m, 0.0m ! Slice}
*.ue[24].mobility.initFromDisplayString = false
*.ue[25].mobility.initialX = ${1945.7314663499724m, 115.026m, 1741.3m, 2946.45m, 2345.91m, 974.568m, 321.469m, 2015.02m, 3517.39m, 2797.51m ! Slice}
*.ue[25].mobility.initialY = ${1521.7578217890343m, 1789.74m, 3029.28m, 1485.79m, 2912.87m, 2604.02m, 929.709m, 2275.09m, 3095.95m, 749.865m ! Slice}
*.ue[25].mobility.initialZ = ${0m, 0.0m, 0.0m, 0.0m, 0.0m, 0.0m, 0.0m, 0.0m, 0.0m, 0.0m ! Slice}
*.ue[25].mobility.initFromDisplayString = false
*.ue[26].mobility.initialX = ${2052.7677780123995m, 3288.75m, 2258.01m, 1085.32m, 828.099m, 2646.69m, 3033.62m, 1491.07m, 9.50764m, 1651.93m ! Slice}
*.ue[26].mobility.initialY = ${1534.5680747574065m, 1809.88m, 670.395m, 2453.56m, 2125.25m, 1712.83m, 2401.3m, 881.351m, 3102.79m, 1723.24m ! Slice}