#Function: ilp_sliced_ini
#Parameters:
#   filename: ../Network_CCOpMv/_5G/simulations/disaster_percentage_0/micro_power_30/chosen_seed_3/ilp_single_sliced_15.ini
#   seed: 3
#   size_y: 4000
#   size_x: 4000
#   size_sector: 400
#   n_macros: 1
#   min_sinr: 15
#   repetitions: 1
#   multi_carriers: False
#   slice_time: 1
#   is_micro: True
#   p_size: 1428
#   app: video
#   target_f: 10
#   extra_config_name: video
#   result_dir: Solutions/disaster_percentage_0/micro_power_30/chosen_seed_3
#   mode: single
#   network_name: ILPSingleNet15
#   net_dir: _5G/networks/disaster_percentage_0/micro_power_30/chosen_seed_3
#   cmdenv_config: True
#   micro_power: 30
#   xml_filename: ilp_move_users-3.sna
#   num_bands: [100]
#Extra = Using 1 macros with 60 ues each. Slicing 10s in 10 different simulations. Using microcells.
[General]
sim-time-limit = 10s

############### Statistics ###############
output-scalar-file = ${resultdir}/${configname}/${repetition}.sca
output-vector-file = ${resultdir}/${configname}/${repetition}.vec
**.vector-recording = false
eventlog-file = ${resultdir}/${configname}/${repetition}.elog
seed-set = ${repetition}

[Config ilp_single_sliced_15_video]
network = _5G.networks.disaster_percentage_0.micro_power_30.chosen_seed_3.ILPSingleNet15
sim-time-limit = 1s
repeat = 1
seed-set = ${repetition}
num-rngs = 2
seed-1-mt = 3

############### Outputs ###############
**.eNB*.cellularNic.channelModel[*].idRcvdSinr:vector.vector-recording = true
**.eNB*.cellularNic.channelModel[*].rcvdSinr:vector.vector-recording = true
**.app[*].throughput:vector.vector-recording = true
**.app[*].endToEndDelay:vector.vector-recording = true
output-scalar-file = ${resultdir}/ilp_single_sliced_15_video/15-${RBs}-${repetition}-${Slice}.sca
output-vector-file = ${resultdir}/ilp_single_sliced_15_video/15-${RBs}-${repetition}-${Slice}.vec
**.vector-recording = false
eventlog-file = ${resultdir}/ilp_single_sliced_15_video/15-${RBs}-${repetition}-${Slice}.elog

############### Cmdenv ###############
cmdenv-performance-display = false
cmdenv-redirect-output = true
cmdenv-output-file = ${resultdir}/ilp_single_sliced_15_video-cmdout/15-${RBs}-${repetition}-${Slice}.out

############### Snapshots ###############
snapshot-file = ../../../Functions/ilp_single_sliced_15_video-RBs_${RBs}-Slice_${Slice}-15-${repetition}.sna
**.snapshotter.snapshot = false
**.snapshotter.delay = 1.0

############### Transmission Power ###############
**.ueTxPower = 24
**.eNodeBTxPower = 46
**.microTxPower = 30
**.cellularNic.phy.txDirection = "OMNI"

############### Channel Control ###############
**.numComponentCarriers = 1
*.carrierAggregation.componentCarrier[0].carrierFrequency = 0.7GHz

############### Channel Model ###############
**.cellularNic.LteChannelModelType = "MoreInfoChannelModel"
**.cellularNic.channelModel[*].building_height = 20
**.cellularNic.channelModel[*].nodeb_height = 18
**.cellularNic.channelModel[*].ue_height = 1.5
**.cellularNic.channelModel[*].street_wide = 20
**.cellularNic.channelModel[*].fading_type = "JAKES"
**.cellularNic.channelModel[*].extCell_interference = false
**.cellularNic.channelModel[*].antennGainEnB = 18
**.cellularNic.channelModel[*].antennGainMicro = 5
**.cellularNic.channelModel[*].antennaGainUe = -1
**.cellularNic.channelModel[*].bs_noise_figure = 9
**.cellularNic.channelModel[*].cable_loss = 2
**.cellularNic.channelModel[*].componentCarrierIndex = 0
**.cellularNic.channelModel[*].correlation_distance = 50
**.cellularNic.channelModel[*].d2d_interference = true
**.cellularNic.channelModel[*].delay_rms = 363e-9
**.cellularNic.channelModel[*].downlink_interference = false
**.cellularNic.channelModel[*].dynamic_los = false
**.cellularNic.channelModel[*].enable_extCell_los = true
**.cellularNic.channelModel[*].fading = true
**.cellularNic.channelModel[*].fading_paths = 6
**.cellularNic.channelModel[*].fixed_los = false
**.cellularNic.channelModel[*].harqReduction = 0.2
**.cellularNic.channelModel[*].inside_building = false
**.cellularNic.channelModel[*].lambdaMaxTh = 0.2
**.cellularNic.channelModel[*].lambdaMinTh = 0.02
**.cellularNic.channelModel[*].lambdaRatioTh = 20
**.cellularNic.channelModel[*].rsrqScale = 1.0
**.cellularNic.channelModel[*].rsrqShift = 22
**.cellularNic.channelModel[*].shadowing = true
**.cellularNic.channelModel[*].targetBler = 0.01
**.cellularNic.channelModel[*].thermalNoise = -104.5
**.cellularNic.channelModel[*].tolerateMaxDistViolation = true
**.cellularNic.channelModel[*].ue_noise_figure = 7
**.cellularNic.channelModel[*].uplink_interference = false
**.cellularNic.channelModel[*].useRsrqFromLog = false
**.cellularNic.channelModel[*].useTorus = false
**.cellularNic.channelModel[*].num_slice = ${Slice= 0, 1, 2, 3, 4, 5, 6, 7, 8, 9}
**.cellularNic.channelModel[*].num_enbs = ${NumEnbs= 2, 6, 6, 6, 6, 6, 6, 6, 6, 6 ! Slice}

############### Resource Blocks ###############
**.numBands = ${RBs= 100}

############### eNBs ###############
**.eNB0.cellInfo.microCell = true
**.eNB1.cellInfo.microCell = true
**.eNB2.cellInfo.microCell = true
**.eNB3.cellInfo.microCell = true
**.eNB4.cellInfo.microCell = true
**.eNB5.cellInfo.microCell = true

############### UEs ###############
**.numUe = 60

# Conecting UEs to eNodeB
**.ue[0].macCellId = ${3, 4, 1, 4, 6, 2, 2, 5, 2, 4 ! Slice}
**.ue[0].masterId = ${3, 4, 1, 4, 6, 2, 2, 5, 2, 4 ! Slice}
**.ue[1].macCellId = ${3, 1, 1, 2, 4, 5, 6, 3, 2, 1 ! Slice}
**.ue[1].masterId = ${3, 1, 1, 2, 4, 5, 6, 3, 2, 1 ! Slice}
**.ue[2].macCellId = ${3, 4, 6, 3, 1, 2, 3, 4, 2, 1 ! Slice}
**.ue[2].masterId = ${3, 4, 6, 3, 1, 2, 3, 4, 2, 1 ! Slice}
**.ue[3].macCellId = ${3, 5, 4, 1, 3, 5, 6, 1, 5, 6 ! Slice}
**.ue[3].masterId = ${3, 5, 4, 1, 3, 5, 6, 1, 5, 6 ! Slice}
**.ue[4].macCellId = ${3, 3, 1, 4, 5, 3, 1, 4, 5, 3 ! Slice}
**.ue[4].masterId = ${3, 3, 1, 4, 5, 3, 1, 4, 5, 3 ! Slice}
**.ue[5].macCellId = ${3, 1, 5, 4, 2, 2, 4, 4, 2, 2 ! Slice}
**.ue[5].masterId = ${3, 1, 5, 4, 2, 2, 4, 4, 2, 2 ! Slice}
**.ue[6].macCellId = ${3, 3, 6, 4, 1, 4, 4, 3, 5, 2 ! Slice}
**.ue[6].masterId = ${3, 3, 6, 4, 1, 4, 4, 3, 5, 2 ! Slice}
**.ue[7].macCellId = ${3, 3, 1, 3, 3, 4, 6, 5, 1, 1 ! Slice}
**.ue[7].masterId = ${3, 3, 1, 3, 3, 4, 6, 5, 1, 1 ! Slice}
**.ue[8].macCellId = ${3, 1, 4, 6, 3, 2, 6, 1, 3, 5 ! Slice}
**.ue[8].masterId = ${3, 1, 4, 6, 3, 2, 6, 1, 3, 5 ! Slice}
**.ue[9].macCellId = ${3, 5, 2, 5, 2, 2, 5, 2, 3, 5 ! Slice}
**.ue[9].masterId = ${3, 5, 2, 5, 2, 2, 5, 2, 3, 5 ! Slice}
**.ue[10].macCellId = ${3, 5, 6, 1, 2, 4, 4, 4, 2, 4 ! Slice}
**.ue[10].masterId = ${3, 5, 6, 1, 2, 4, 4, 4, 2, 4 ! Slice}
**.ue[11].macCellId = ${3, 3, 4, 3, 4, 4, 2, 4, 3, 2 ! Slice}
**.ue[11].masterId = ${3, 3, 4, 3, 4, 4, 2, 4, 3, 2 ! Slice}
**.ue[12].macCellId = ${3, 4, 4, 1, 3, 5, 1, 4, 6, 2 ! Slice}
**.ue[12].masterId = ${3, 4, 4, 1, 3, 5, 1, 4, 6, 2 ! Slice}
**.ue[13].macCellId = ${3, 3, 6, 3, 1, 1, 2, 1, 5, 6 ! Slice}
**.ue[13].masterId = ${3, 3, 6, 3, 1, 1, 2, 1, 5, 6 ! Slice}
**.ue[14].macCellId = ${3, 5, 2, 2, 5, 2, 5, 3, 2, 6 ! Slice}
**.ue[14].masterId = ${3, 5, 2, 2, 5, 2, 5, 3, 2, 6 ! Slice}
**.ue[15].macCellId = ${3, 3, 4, 1, 4, 4, 1, 4, 4, 1 ! Slice}
**.ue[15].masterId = ${3, 3, 4, 1, 4, 4, 1, 4, 4, 1 ! Slice}
**.ue[16].macCellId = ${3, 2, 5, 5, 2, 5, 3, 1, 6, 1 ! Slice}
**.ue[16].masterId = ${3, 2, 5, 5, 2, 5, 3, 1, 6, 1 ! Slice}
**.ue[17].macCellId = ${3, 3, 2, 5, 2, 2, 5, 2, 2, 2 ! Slice}
**.ue[17].masterId = ${3, 3, 2, 5, 2, 2, 5, 2, 2, 2 ! Slice}
**.ue[18].macCellId = ${3, 1, 4, 5, 1, 4, 6, 2, 2, 4 ! Slice}
**.ue[18].masterId = ${3, 1, 4, 5, 1, 4, 6, 2, 2, 4 ! Slice}
**.ue[19].macCellId = ${3, 4, 4, 3, 4, 3, 6, 4, 4, 4 ! Slice}
**.ue[19].masterId = ${3, 4, 4, 3, 4, 3, 6, 4, 4, 4 ! Slice}
**.ue[20].macCellId = ${3, 3, 4, 5, 6, 5, 5, 6, 5, 6 ! Slice}
**.ue[20].masterId = ${3, 3, 4, 5, 6, 5, 5, 6, 5, 6 ! Slice}
**.ue[21].macCellId = ${3, 6, 4, 2, 3, 4, 3, 2, 1, 4 ! Slice}
**.ue[21].masterId = ${3, 6, 4, 2, 3, 4, 3, 2, 1, 4 ! Slice}
**.ue[22].macCellId = ${3, 2, 5, 2, 3, 3, 6, 4, 3, 4 ! Slice}
**.ue[22].masterId = ${3, 2, 5, 2, 3, 3, 6, 4, 3, 4 ! Slice}
**.ue[23].macCellId = ${3, 2, 3, 6, 1, 3, 5, 3, 1, 4 ! Slice}
**.ue[23].masterId = ${3, 2, 3, 6, 1, 3, 5, 3, 1, 4 ! Slice}
**.ue[24].macCellId = ${3, 2, 4, 4, 3, 2, 3, 6, 4, 1 ! Slice}
**.ue[24].masterId = ${3, 2, 4, 4, 3, 2, 3, 6, 4, 1 ! Slice}
**.ue[25].macCellId = ${3, 1, 4, 3, 5, 4, 1, 2, 5, 4 ! Slice}
**.ue[25].masterId = ${3, 1, 4, 3, 5, 4, 1, 2, 5, 4 ! Slice}
**.ue[26].macCellId = ${3, 3, 4, 5, 5, 4, 4, 6, 3, 1 ! Slice}
**.ue[26].masterId = ${3, 3, 4, 5, 5, 4, 4, 6, 3, 1 ! Slice}
**.ue[27].macCellId = ${3, 4, 3, 4, 3, 4, 4, 6, 4, 6 ! Slice}
**.ue[27].masterId = ${3, 4, 3, 4, 3, 4, 4, 6, 4, 6 ! Slice}
**.ue[28].macCellId = ${3, 3, 4, 5, 5, 5, 3, 4, 2, 1 ! Slice}
**.ue[28].masterId = ${3, 3, 4, 5, 5, 5, 3, 4, 2, 1 ! Slice}
**.ue[29].macCellId = ${3, 5, 5, 4, 1, 4, 3, 2, 5, 5 ! Slice}
**.ue[29].masterId = ${3, 5, 5, 4, 1, 4, 3, 2, 5, 5 ! Slice}
**.ue[30].macCellId = ${3, 1, 1, 1, 3, 3, 4, 5, 4, 2 ! Slice}
**.ue[30].masterId = ${3, 1, 1, 1, 3, 3, 4, 5, 4, 2 ! Slice}
**.ue[31].macCellId = ${3, 2, 5, 3, 3, 3, 6, 3, 3, 6 ! Slice}
**.ue[31].masterId = ${3, 2, 5, 3, 3, 3, 6, 3, 3, 6 ! Slice}
**.ue[32].macCellId = ${3, 6, 4, 2, 1, 4, 4, 5, 5, 6 ! Slice}
**.ue[32].masterId = ${3, 6, 4, 2, 1, 4, 4, 5, 5, 6 ! Slice}
**.ue[33].macCellId = ${3, 3, 1, 2, 2, 1, 3, 5, 4, 5 ! Slice}
**.ue[33].masterId = ${3, 3, 1, 2, 2, 1, 3, 5, 4, 5 ! Slice}
**.ue[34].macCellId = ${3, 2, 5, 3, 3, 4, 1, 4, 4, 1 ! Slice}
**.ue[34].masterId = ${3, 2, 5, 3, 3, 4, 1, 4, 4, 1 ! Slice}
**.ue[35].macCellId = ${3, 5, 1, 1, 6, 2, 2, 4, 4, 2 ! Slice}
**.ue[35].masterId = ${3, 5, 1, 1, 6, 2, 2, 4, 4, 2 ! Slice}
**.ue[36].macCellId = ${3, 2, 5, 5, 2, 5, 2, 2, 5, 2 ! Slice}
**.ue[36].masterId = ${3, 2, 5, 5, 2, 5, 2, 2, 5, 2 ! Slice}
**.ue[37].macCellId = ${3, 2, 5, 2, 6, 1, 3, 6, 4, 1 ! Slice}
**.ue[37].masterId = ${3, 2, 5, 2, 6, 1, 3, 6, 4, 1 ! Slice}
**.ue[38].macCellId = ${3, 4, 4, 5, 6, 4, 5, 6, 6, 5 ! Slice}
**.ue[38].masterId = ${3, 4, 4, 5, 6, 4, 5, 6, 6, 5 ! Slice}
**.ue[39].macCellId = ${3, 1, 2, 1, 1, 5, 6, 4, 5, 6 ! Slice}
**.ue[39].masterId = ${3, 1, 2, 1, 1, 5, 6, 4, 5, 6 ! Slice}
**.ue[40].macCellId = ${3, 5, 4, 4, 2, 1, 4, 6, 5, 4 ! Slice}
**.ue[40].masterId = ${3, 5, 4, 4, 2, 1, 4, 6, 5, 4 ! Slice}
**.ue[41].macCellId = ${3, 5, 2, 2, 2, 5, 5, 3, 3, 4 ! Slice}
**.ue[41].masterId = ${3, 5, 2, 2, 2, 5, 5, 3, 3, 4 ! Slice}
**.ue[42].macCellId = ${3, 2, 5, 2, 2, 5, 2, 3, 3, 6 ! Slice}
**.ue[42].masterId = ${3, 2, 5, 2, 2, 5, 2, 3, 3, 6 ! Slice}
**.ue[43].macCellId = ${3, 3, 3, 6, 1, 4, 4, 4, 4, 1 ! Slice}
**.ue[43].masterId = ${3, 3, 3, 6, 1, 4, 4, 4, 4, 1 ! Slice}
**.ue[44].macCellId = ${3, 1, 4, 5, 2, 2, 4, 4, 2, 2 ! Slice}
**.ue[44].masterId = ${3, 1, 4, 5, 2, 2, 4, 4, 2, 2 ! Slice}
**.ue[45].macCellId = ${3, 2, 2, 5, 2, 2, 5, 2, 3, 4 ! Slice}
**.ue[45].masterId = ${3, 2, 2, 5, 2, 2, 5, 2, 3, 4 ! Slice}
**.ue[46].macCellId = ${3, 3, 1, 6, 5, 1, 6, 6, 2, 2 ! Slice}
**.ue[46].masterId = ${3, 3, 1, 6, 5, 1, 6, 6, 2, 2 ! Slice}
**.ue[47].macCellId = ${3, 4, 3, 2, 4, 3, 2, 2, 4, 3 ! Slice}
**.ue[47].masterId = ${3, 4, 3, 2, 4, 3, 2, 2, 4, 3 ! Slice}
**.ue[48].macCellId = ${3, 3, 4, 4, 5, 4, 6, 4, 5, 6 ! Slice}
**.ue[48].masterId = ${3, 3, 4, 4, 5, 4, 6, 4, 5, 6 ! Slice}
**.ue[49].macCellId = ${3, 2, 5, 2, 3, 6, 1, 1, 4, 4 ! Slice}
**.ue[49].masterId = ${3, 2, 5, 2, 3, 6, 1, 1, 4, 4 ! Slice}
**.ue[50].macCellId = ${3, 2, 4, 6, 5, 1, 3, 6, 4, 1 ! Slice}
**.ue[50].masterId = ${3, 2, 4, 6, 5, 1, 3, 6, 4, 1 ! Slice}
**.ue[51].macCellId = ${3, 3, 1, 3, 6, 3, 3, 6, 3, 6 ! Slice}
**.ue[51].masterId = ${3, 3, 1, 3, 6, 3, 3, 6, 3, 6 ! Slice}
**.ue[52].macCellId = ${3, 4, 5, 3, 1, 2, 4, 6, 5, 3 ! Slice}
**.ue[52].masterId = ${3, 4, 5, 3, 1, 2, 4, 6, 5, 3 ! Slice}
**.ue[53].macCellId = ${3, 4, 5, 5, 4, 4, 5, 4, 3, 1 ! Slice}
**.ue[53].masterId = ${3, 4, 5, 5, 4, 4, 5, 4, 3, 1 ! Slice}
**.ue[54].macCellId = ${3, 1, 4, 4, 4, 2, 5, 1, 6, 3 ! Slice}
**.ue[54].masterId = ${3, 1, 4, 4, 4, 2, 5, 1, 6, 3 ! Slice}
**.ue[55].macCellId = ${3, 6, 1, 6, 5, 2, 6, 4, 1, 3 ! Slice}
**.ue[55].masterId = ${3, 6, 1, 6, 5, 2, 6, 4, 1, 3 ! Slice}
**.ue[56].macCellId = ${3, 2, 5, 4, 4, 3, 2, 5, 4, 4 ! Slice}
**.ue[56].masterId = ${3, 2, 5, 4, 4, 3, 2, 5, 4, 4 ! Slice}
**.ue[57].macCellId = ${3, 4, 1, 2, 3, 6, 5, 4, 3, 1 ! Slice}
**.ue[57].masterId = ${3, 4, 1, 2, 3, 6, 5, 4, 3, 1 ! Slice}
**.ue[58].macCellId = ${5, 1, 4, 4, 1, 4, 6, 2, 2, 5 ! Slice}
**.ue[58].masterId = ${5, 1, 4, 4, 1, 4, 6, 2, 2, 5 ! Slice}
**.ue[59].macCellId = ${3, 5, 2, 4, 4, 1, 3, 5, 2, 2 ! Slice}
**.ue[59].masterId = ${3, 5, 2, 4, 4, 1, 3, 5, 2, 2 ! Slice}

# Scheduler
**.schedulingDisciplineUl = ${sched= "MAXCI"}
**.schedulingDisciplineDl = ${sched}

############### Scenario ###############

# eNodeBs
**.eNB0.cellularNic.channelModel[*].scenario = "URBAN_MICROCELL"
**.eNB1.cellularNic.channelModel[*].scenario = "URBAN_MICROCELL"
**.eNB2.cellularNic.channelModel[*].scenario = "URBAN_MICROCELL"
**.eNB3.cellularNic.channelModel[*].scenario = "URBAN_MICROCELL"
**.eNB4.cellularNic.channelModel[*].scenario = "URBAN_MICROCELL"
**.eNB5.cellularNic.channelModel[*].scenario = "URBAN_MICROCELL"

# UEs
**.ue[0].cellularNic.channelModel[*].scenario = "URBAN_MICROCELL"
**.ue[1].cellularNic.channelModel[*].scenario = "URBAN_MICROCELL"
**.ue[2].cellularNic.channelModel[*].scenario = "URBAN_MICROCELL"
**.ue[3].cellularNic.channelModel[*].scenario = "URBAN_MICROCELL"
**.ue[4].cellularNic.channelModel[*].scenario = "URBAN_MICROCELL"
**.ue[5].cellularNic.channelModel[*].scenario = "URBAN_MICROCELL"
**.ue[6].cellularNic.channelModel[*].scenario = "URBAN_MICROCELL"
**.ue[7].cellularNic.channelModel[*].scenario = "URBAN_MICROCELL"
**.ue[8].cellularNic.channelModel[*].scenario = "URBAN_MICROCELL"
**.ue[9].cellularNic.channelModel[*].scenario = "URBAN_MICROCELL"
**.ue[10].cellularNic.channelModel[*].scenario = "URBAN_MICROCELL"
**.ue[11].cellularNic.channelModel[*].scenario = "URBAN_MICROCELL"
**.ue[12].cellularNic.channelModel[*].scenario = "URBAN_MICROCELL"
**.ue[13].cellularNic.channelModel[*].scenario = "URBAN_MICROCELL"
**.ue[14].cellularNic.channelModel[*].scenario = "URBAN_MICROCELL"
**.ue[15].cellularNic.channelModel[*].scenario = "URBAN_MICROCELL"
**.ue[16].cellularNic.channelModel[*].scenario = "URBAN_MICROCELL"
**.ue[17].cellularNic.channelModel[*].scenario = "URBAN_MICROCELL"
**.ue[18].cellularNic.channelModel[*].scenario = "URBAN_MICROCELL"
**.ue[19].cellularNic.channelModel[*].scenario = "URBAN_MICROCELL"
**.ue[20].cellularNic.channelModel[*].scenario = "URBAN_MICROCELL"
**.ue[21].cellularNic.channelModel[*].scenario = "URBAN_MICROCELL"
**.ue[22].cellularNic.channelModel[*].scenario = "URBAN_MICROCELL"
**.ue[23].cellularNic.channelModel[*].scenario = "URBAN_MICROCELL"
**.ue[24].cellularNic.channelModel[*].scenario = "URBAN_MICROCELL"
**.ue[25].cellularNic.channelModel[*].scenario = "URBAN_MICROCELL"
**.ue[26].cellularNic.channelModel[*].scenario = "URBAN_MICROCELL"
**.ue[27].cellularNic.channelModel[*].scenario = "URBAN_MICROCELL"
**.ue[28].cellularNic.channelModel[*].scenario = "URBAN_MICROCELL"
**.ue[29].cellularNic.channelModel[*].scenario = "URBAN_MICROCELL"
**.ue[30].cellularNic.channelModel[*].scenario = "URBAN_MICROCELL"
**.ue[31].cellularNic.channelModel[*].scenario = "URBAN_MICROCELL"
**.ue[32].cellularNic.channelModel[*].scenario = "URBAN_MICROCELL"
**.ue[33].cellularNic.channelModel[*].scenario = "URBAN_MICROCELL"
**.ue[34].cellularNic.channelModel[*].scenario = "URBAN_MICROCELL"
**.ue[35].cellularNic.channelModel[*].scenario = "URBAN_MICROCELL"
**.ue[36].cellularNic.channelModel[*].scenario = "URBAN_MICROCELL"
**.ue[37].cellularNic.channelModel[*].scenario = "URBAN_MICROCELL"
**.ue[38].cellularNic.channelModel[*].scenario = "URBAN_MICROCELL"
**.ue[39].cellularNic.channelModel[*].scenario = "URBAN_MICROCELL"
**.ue[40].cellularNic.channelModel[*].scenario = "URBAN_MICROCELL"
**.ue[41].cellularNic.channelModel[*].scenario = "URBAN_MICROCELL"
**.ue[42].cellularNic.channelModel[*].scenario = "URBAN_MICROCELL"
**.ue[43].cellularNic.channelModel[*].scenario = "URBAN_MICROCELL"
**.ue[44].cellularNic.channelModel[*].scenario = "URBAN_MICROCELL"
**.ue[45].cellularNic.channelModel[*].scenario = "URBAN_MICROCELL"
**.ue[46].cellularNic.channelModel[*].scenario = "URBAN_MICROCELL"
**.ue[47].cellularNic.channelModel[*].scenario = "URBAN_MICROCELL"
**.ue[48].cellularNic.channelModel[*].scenario = "URBAN_MICROCELL"
**.ue[49].cellularNic.channelModel[*].scenario = "URBAN_MICROCELL"
**.ue[50].cellularNic.channelModel[*].scenario = "URBAN_MICROCELL"
**.ue[51].cellularNic.channelModel[*].scenario = "URBAN_MICROCELL"
**.ue[52].cellularNic.channelModel[*].scenario = "URBAN_MICROCELL"
**.ue[53].cellularNic.channelModel[*].scenario = "URBAN_MICROCELL"
**.ue[54].cellularNic.channelModel[*].scenario = "URBAN_MICROCELL"
**.ue[55].cellularNic.channelModel[*].scenario = "URBAN_MICROCELL"
**.ue[56].cellularNic.channelModel[*].scenario = "URBAN_MICROCELL"
**.ue[57].cellularNic.channelModel[*].scenario = "URBAN_MICROCELL"
**.ue[58].cellularNic.channelModel[*].scenario = "URBAN_MICROCELL"
**.ue[59].cellularNic.channelModel[*].scenario = "URBAN_MICROCELL"

############### Mobility ###############

# eNodeB
*.eNB0.mobility.initialX = 3000.0m
*.eNB0.mobility.initialY = 600.0m
*.eNB0.mobility.initialZ = 0m
*.eNB0.mobility.initFromDisplayString = false
*.eNB1.mobility.initialX = 600.0m
*.eNB1.mobility.initialY = 1000.0m
*.eNB1.mobility.initialZ = 0m
*.eNB1.mobility.initFromDisplayString = false
*.eNB2.mobility.initialX = 1400.0m
*.eNB2.mobility.initialY = 1800.0m
*.eNB2.mobility.initialZ = 0m
*.eNB2.mobility.initFromDisplayString = false
*.eNB3.mobility.initialX = 3000.0m
*.eNB3.mobility.initialY = 2200.0m
*.eNB3.mobility.initialZ = 0m
*.eNB3.mobility.initFromDisplayString = false
*.eNB4.mobility.initialX = 1000.0m
*.eNB4.mobility.initialY = 3400.0m
*.eNB4.mobility.initialZ = 0m
*.eNB4.mobility.initFromDisplayString = false
*.eNB5.mobility.initialX = 1800.0m
*.eNB5.mobility.initialY = 3400.0m
*.eNB5.mobility.initialZ = 0m
*.eNB5.mobility.initFromDisplayString = false
*.eNB*.mobility.constraintAreaMaxX = 4000 m
*.eNB*.mobility.constraintAreaMaxY = 4000 m
*.eNB*.mobility.constraintAreaMaxZ = inf m
*.eNB*.mobility.constraintAreaMinX = 0 m
*.eNB*.mobility.constraintAreaMinY = 0 m
*.eNB*.mobility.constraintAreaMinZ = -inf m

# UEs

*.ue[*].mobilityType = "LinearMobility"
*.ue[0].mobility.initialX = ${1012.7627568459758m, 2361.55m, 3663.29m, 3227.32m, 2970.76m, 1556.23m, 1185.38m, 509.618m, 1415.55m, 2463.84m ! Slice}
*.ue[0].mobility.initialY = ${1968.790013346149m, 2149.48m, 1232.48m, 3549.63m, 3645.45m, 36.8258m, 918.756m, 2708.28m, 379.286m, 2341.75m ! Slice}
*.ue[0].mobility.initialZ = ${0m, 0.0m, 0.0m, 0.0m, 0.0m, 0.0m, 0.0m, 0.0m, 0.0m, 0.0m ! Slice}
*.ue[0].mobility.initFromDisplayString = false
*.ue[1].mobility.initialX = ${1033.380953218156m, 2421.52m, 3859.72m, 1475.27m, 2440.39m, 1534.67m, 1754.83m, 2271.66m, 971.192m, 2403.72m ! Slice}
*.ue[1].mobility.initialY = ${1934.547663998121m, 752.976m, 154.636m, 835.337m, 2152.21m, 3599.86m, 3152.46m, 1815.38m, 1181.7m, 13.7519m ! Slice}
*.ue[1].mobility.initialZ = ${0m, 0.0m, 0.0m, 0.0m, 0.0m, 0.0m, 0.0m, 0.0m, 0.0m, 0.0m ! Slice}
*.ue[1].mobility.initFromDisplayString = false
*.ue[2].mobility.initialX = ${1046.2452428758936m, 3886.2m, 2127.71m, 1729.78m, 2758.25m, 614.91m, 1248.85m, 3809.64m, 84.3988m, 2453.07m ! Slice}
*.ue[2].mobility.initialY = ${1934.5159232517829m, 3493.5m, 3349.58m, 1511.91m, 639.689m, 1805.78m, 2788.95m, 3541.95m, 1418.76m, 118.487m ! Slice}
*.ue[2].mobility.initialZ = ${0m, 0.0m, 0.0m, 0.0m, 0.0m, 0.0m, 0.0m, 0.0m, 0.0m, 0.0m ! Slice}
*.ue[2].mobility.initFromDisplayString = false
*.ue[3].mobility.initialX = ${999.1993322501444m, 399.901m, 2587.1m, 2687.16m, 1076.77m, 596.052m, 1699.83m, 3025.13m, 955.296m, 1750.82m ! Slice}
*.ue[3].mobility.initialY = ${1928.4304891418144m, 3167.21m, 2228.05m, 208.334m, 2111.96m, 3654.04m, 2980.95m, 86.051m, 2501.09m, 2601.18m ! Slice}
*.ue[3].mobility.initialZ = ${0m, 0.0m, 0.0m, 0.0m, 0.0m, 0.0m, 0.0m, 0.0m, 0.0m, 0.0m ! Slice}
*.ue[3].mobility.initFromDisplayString = false
*.ue[4].mobility.initialX = ${976.2179491990262m, 1663.21m, 3127.83m, 2291.7m, 1076.1m, 1250.62m, 3011.61m, 2159.35m, 73.0515m, 2011.4m ! Slice}
*.ue[4].mobility.initialY = ${1942.613587670978m, 1294.79m, 86.3187m, 2384.25m, 3665.93m, 2276.15m, 479.434m, 2097.77m, 3366.14m, 1878.77m ! Slice}
*.ue[4].mobility.initialZ = ${0m, 0.0m, 0.0m, 0.0m, 0.0m, 0.0m, 0.0m, 0.0m, 0.0m, 0.0m ! Slice}
*.ue[4].mobility.initFromDisplayString = false
*.ue[5].mobility.initialX = ${972.8850182775852m, 2734.79m, 278.945m, 3225.79m, 1285.19m, 796.406m, 2541.48m, 3906.07m, 894.013m, 1289.63m ! Slice}
*.ue[5].mobility.initialY = ${1954.5150460841724m, 1191.78m, 3088.71m, 2153.82m, 253.064m, 1717.2m, 3175.32m, 3669.34m, 1413.41m, 135.892m ! Slice}
*.ue[5].mobility.initialZ = ${0m, 0.0m, 0.0m, 0.0m, 0.0m, 0.0m, 0.0m, 0.0m, 0.0m, 0.0m ! Slice}
*.ue[5].mobility.initFromDisplayString = false
*.ue[6].mobility.initialX = ${1013.0462590352453m, 1843.97m, 2620.97m, 3042.71m, 3864.8m, 3209.58m, 2676.52m, 1891.68m, 973.225m, 307.295m ! Slice}
*.ue[6].mobility.initialY = ${1760.3199312525346m, 1631.37m, 3878.29m, 2335.52m, 1110.81m, 3977.34m, 1992.12m, 1240.76m, 3761.21m, 1325.13m ! Slice}
*.ue[6].mobility.initialZ = ${0m, 0.0m, 0.0m, 0.0m, 0.0m, 0.0m, 0.0m, 0.0m, 0.0m, 0.0m ! Slice}
*.ue[6].mobility.initFromDisplayString = false
*.ue[7].mobility.initialX = ${1065.3557540234633m, 1640.87m, 3133.85m, 1654.5m, 1356.09m, 3904.27m, 2618.11m, 58.7038m, 3645.31m, 1724.48m ! Slice}
*.ue[7].mobility.initialY = ${1936.8874244439596m, 879.437m, 536.601m, 1206.37m, 2358.38m, 3645.28m, 3764.21m, 2673.86m, 1152.63m, 37.048m ! Slice}
*.ue[7].mobility.initialZ = ${0m, 0.0m, 0.0m, 0.0m, 0.0m, 0.0m, 0.0m, 0.0m, 0.0m, 0.0m ! Slice}
*.ue[7].mobility.initFromDisplayString = false
*.ue[8].mobility.initialX = ${1019.2822126323334m, 2657.56m, 3776.97m, 2783.11m, 1671.38m, 163.198m, 2094.63m, 3439.34m, 1895.68m, 293.489m ! Slice}
*.ue[8].mobility.initialY = ${1961.6346980499798m, 876.109m, 2154.7m, 3393.48m, 2036.5m, 1076.41m, 3584.95m, 1219.88m, 1755.13m, 3961.68m ! Slice}
*.ue[8].mobility.initialZ = ${0m, 0.0m, 0.0m, 0.0m, 0.0m, 0.0m, 0.0m, 0.0m, 0.0m, 0.0m ! Slice}
*.ue[8].mobility.initFromDisplayString = false
*.ue[9].mobility.initialX = ${1061.727940487231m, 1062.23m, 1063.0m, 1063.7m, 1064.38m, 1064.81m, 1065.36m, 1066.08m, 1066.72m, 1067.49m ! Slice}
*.ue[9].mobility.initialY = ${1986.2585016304272m, 3240.71m, 34.2373m, 3250.48m, 1483.88m, 716.589m, 3008.01m, 1445.68m, 1637.68m, 2519.12m ! Slice}
*.ue[9].mobility.initialZ = ${0m, 0.0m, 0.0m, 0.0m, 0.0m, 0.0m, 0.0m, 0.0m, 0.0m, 0.0m ! Slice}
*.ue[9].mobility.initFromDisplayString = false
*.ue[10].mobility.initialX = ${1035.2548697470215m, 1398.31m, 2481.56m, 2814.45m, 1528.05m, 2352.43m, 3550.65m, 2191.27m, 333.165m, 3276.4m ! Slice}
*.ue[10].mobility.initialY = ${1982.929168448113m, 3738.62m, 3230.66m, 1332.91m, 97.3326m, 2744.56m, 3907.43m, 2363.74m, 846.792m, 2116.31m ! Slice}
*.ue[10].mobility.initialZ = ${0m, 0.0m, 0.0m, 0.0m, 0.0m, 0.0m, 0.0m, 0.0m, 0.0m, 0.0m ! Slice}
*.ue[10].mobility.initFromDisplayString = false
*.ue[11].mobility.initialX = ${958.244203681047m, 981.774m, 2424.95m, 1081.93m, 3095.76m, 2838.68m, 415.402m, 3365.54m, 2089.25m, 780.812m ! Slice}
*.ue[11].mobility.initialY = ${1955.9853230134297m, 1952.58m, 1944.45m, 1937.46m, 1932.54m, 1928.78m, 1923.8m, 1915.54m, 1910.53m, 1905.58m ! Slice}
*.ue[11].mobility.initialZ = ${0m, 0.0m, 0.0m, 0.0m, 0.0m, 0.0m, 0.0m, 0.0m, 0.0m, 0.0m ! Slice}
*.ue[11].mobility.initFromDisplayString = false
*.ue[12].mobility.initialX = ${1061.4532831792183m, 2822.96m, 3761.74m, 2229.45m, 1915.74m, 180.807m, 2561.88m, 3038.39m, 1928.85m, 138.745m ! Slice}
*.ue[12].mobility.initialY = ${1982.33871366348m, 3211.05m, 2333.87m, 808.352m, 834.55m, 3694.71m, 1056.99m, 2035.8m, 3730.44m, 1429.44m ! Slice}
*.ue[12].mobility.initialZ = ${0m, 0.0m, 0.0m, 0.0m, 0.0m, 0.0m, 0.0m, 0.0m, 0.0m, 0.0m ! Slice}
*.ue[12].mobility.initFromDisplayString = false
*.ue[13].mobility.initialX = ${954.3655461055145m, 1351.76m, 2721.31m, 1841.0m, 3580.64m, 2524.9m, 990.23m, 2609.76m, 330.933m, 1603.51m ! Slice}
*.ue[13].mobility.initialY = ${1987.3088974553593m, 2778.2m, 3876.89m, 2190.83m, 1325.86m, 633.482m, 631.473m, 1302.32m, 3104.77m, 3913.1m ! Slice}
*.ue[13].mobility.initialZ = ${0m, 0.0m, 0.0m, 0.0m, 0.0m, 0.0m, 0.0m, 0.0m, 0.0m, 0.0m ! Slice}
*.ue[13].mobility.initFromDisplayString = false
*.ue[14].mobility.initialX = ${1068.1201415824992m, 921.207m, 575.745m, 185.58m, 162.483m, 567.772m, 897.291m, 1101.31m, 1327.61m, 1621.04m ! Slice}
*.ue[14].mobility.initialY = ${1983.994245279797m, 3325.74m, 1414.15m, 2281.2m, 2724.82m, 1476.59m, 3933.94m, 2202.74m, 136.023m, 2543.9m ! Slice}
*.ue[14].mobility.initialZ = ${0m, 0.0m, 0.0m, 0.0m, 0.0m, 0.0m, 0.0m, 0.0m, 0.0m, 0.0m ! Slice}
*.ue[14].mobility.initFromDisplayString = false
*.ue[15].mobility.initialX = ${998.8066793654m, 1563.75m, 2080.9m, 2598.47m, 3076.83m, 3397.54m, 3830.78m, 3879.43m, 3591.22m, 3154.8m ! Slice}
*.ue[15].mobility.initialY = ${1995.7335392454663m, 2089.46m, 2555.44m, 962.688m, 3562.63m, 2319.2m, 911.236m, 2210.27m, 3420.83m, 899.372m ! Slice}
*.ue[15].mobility.initialZ = ${0m, 0.0m, 0.0m, 0.0m, 0.0m, 0.0m, 0.0m, 0.0m, 0.0m, 0.0m ! Slice}
*.ue[15].mobility.initFromDisplayString = false
*.ue[16].mobility.initialX = ${1050.8838691779722m, 553.172m, 14.6822m, 284.633m, 958.709m, 1581.27m, 2041.7m, 2444.81m, 3089.5m, 3522.65m ! Slice}
*.ue[16].mobility.initialY = ${1938.2843790461848m, 1123.13m, 3628.29m, 2747.1m, 1380.87m, 3798.08m, 1324.6m, 1058.16m, 3695.76m, 1368.81m ! Slice}
*.ue[16].mobility.initialZ = ${0m, 0.0m, 0.0m, 0.0m, 0.0m, 0.0m, 0.0m, 0.0m, 0.0m, 0.0m ! Slice}
*.ue[16].mobility.initFromDisplayString = false
*.ue[17].mobility.initialX = ${1018.859126178104m, 811.144m, 627.304m, 490.607m, 342.421m, 257.308m, 85.8917m, 89.5006m, 195.286m, 294.542m ! Slice}
*.ue[17].mobility.initialY = ${1939.2448094187102m, 1818.56m, 1520.13m, 3679.63m, 1572.6m, 18.5816m, 3142.14m, 1768.99m, 642.589m, 2156.91m ! Slice}
*.ue[17].mobility.initialZ = ${0m, 0.0m, 0.0m, 0.0m, 0.0m, 0.0m, 0.0m, 0.0m, 0.0m, 0.0m ! Slice}
*.ue[17].mobility.initFromDisplayString = false
*.ue[18].mobility.initialX = ${1058.1199011584806m, 2467.64m, 2972.59m, 1515.8m, 1630.05m, 3556.43m, 2870.28m, 519.23m, 1002.41m, 2992.46m ! Slice}
*.ue[18].mobility.initialY = ${1929.0938028085436m, 332.31m, 2286.82m, 3486.86m, 524.112m, 2000.6m, 3693.52m, 1562.13m, 72.5395m, 2387.95m ! Slice}
*.ue[18].mobility.initialZ = ${0m, 0.0m, 0.0m, 0.0m, 0.0m, 0.0m, 0.0m, 0.0m, 0.0m, 0.0m ! Slice}
*.ue[18].mobility.initFromDisplayString = false
*.ue[19].mobility.initialX = ${1038.9454219859654m, 2855.9m, 2201.91m, 904.059m, 3130.47m, 1270.09m, 1818.39m, 3767.08m, 3798.7m, 2659.44m ! Slice}
*.ue[19].mobility.initialY = ${1989.486776344094m, 2068.12m, 2187.3m, 2311.64m, 2426.23m, 2576.75m, 2706.72m, 2800.01m, 2818.58m, 2868.11m ! Slice}
*.ue[19].mobility.initialZ = ${0m, 0.0m, 0.0m, 0.0m, 0.0m, 0.0m, 0.0m, 0.0m, 0.0m, 0.0m ! Slice}
*.ue[19].mobility.initFromDisplayString = false
*.ue[20].mobility.initialX = ${1020.7855828376477m, 1618.93m, 3155.93m, 647.833m, 2337.63m, 1404.28m, 108.299m, 2437.06m, 1166.0m, 2111.46m ! Slice}
*.ue[20].mobility.initialY = ${1967.179050754863m, 2183.51m, 2446.99m, 2710.88m, 2969.82m, 3328.66m, 3488.62m, 3695.47m, 3880.85m, 3640.61m ! Slice}
*.ue[20].mobility.initialZ = ${0m, 0.0m, 0.0m, 0.0m, 0.0m, 0.0m, 0.0m, 0.0m, 0.0m, 0.0m ! Slice}
*.ue[20].mobility.initFromDisplayString = false
*.ue[21].mobility.initialX = ${1050.3310618704447m, 2203.29m, 2634.92m, 383.912m, 2011.8m, 3886.81m, 863.495m, 1260.93m, 3308.57m, 3140.05m ! Slice}
*.ue[21].mobility.initialY = ${1958.8128756286599m, 2943.9m, 2450.48m, 431.431m, 1636.14m, 3410.87m, 1924.12m, 285.059m, 1583.28m, 2803.3m ! Slice}
*.ue[21].mobility.initialZ = ${0m, 0.0m, 0.0m, 0.0m, 0.0m, 0.0m, 0.0m, 0.0m, 0.0m, 0.0m ! Slice}
*.ue[21].mobility.initFromDisplayString = false
*.ue[22].mobility.initialX = ${944.2546833292197m, 1061.49m, 1221.61m, 1401.36m, 1498.53m, 1661.22m, 1867.02m, 2018.8m, 2188.16m, 2402.16m ! Slice}
*.ue[22].mobility.initialY = ${1984.917524719772m, 958.13m, 3961.53m, 57.9289m, 2052.45m, 2062.99m, 2463.58m, 2350.89m, 1495.91m, 1803.81m ! Slice}
*.ue[22].mobility.initialZ = ${0m, 0.0m, 0.0m, 0.0m, 0.0m, 0.0m, 0.0m, 0.0m, 0.0m, 0.0m ! Slice}
*.ue[22].mobility.initFromDisplayString = false
*.ue[23].mobility.initialX = ${1029.427488690222m, 420.995m, 1247.95m, 3138.67m, 2857.04m, 1648.45m, 350.104m, 2203.57m, 3253.02m, 2891.43m ! Slice}
*.ue[23].mobility.initialY = ${1928.9004572315719m, 120.238m, 1380.78m, 3871.48m, 1151.18m, 973.949m, 2684.6m, 1442.88m, 79.0486m, 2427.25m ! Slice}
*.ue[23].mobility.initialZ = ${0m, 0.0m, 0.0m, 0.0m, 0.0m, 0.0m, 0.0m, 0.0m, 0.0m, 0.0m ! Slice}
*.ue[23].mobility.initFromDisplayString = false
*.ue[24].mobility.initialX = ${963.6993776302317m, 908.054m, 2149.84m, 3634.64m, 2177.47m, 866.307m, 619.148m, 1809.08m, 2563.96m, 3530.89m ! Slice}
*.ue[24].mobility.initialY = ${1983.3542818516573m, 200.073m, 2065.56m, 3996.43m, 1214.51m, 731.924m, 2285.82m, 3974.18m, 2992.53m, 870.572m ! Slice}
*.ue[24].mobility.initialZ = ${0m, 0.0m, 0.0m, 0.0m, 0.0m, 0.0m, 0.0m, 0.0m, 0.0m, 0.0m ! Slice}
*.ue[24].mobility.initFromDisplayString = false
*.ue[25].mobility.initialX = ${1026.2383510702018m, 3602.86m, 2567.47m, 1574.9m, 79.8911m, 2277.96m, 2400.3m, 794.969m, 1395.33m, 3797.49m ! Slice}
*.ue[25].mobility.initialY = ${1993.2282684063678m, 140.543m, 1637.38m, 2477.72m, 3715.77m, 2300.57m, 174.509m, 1748.61m, 3460.08m, 2039.64m ! Slice}
*.ue[25].mobility.initialZ = ${0m, 0.0m, 0.0m, 0.0m, 0.0m, 0.0m, 0.0m, 0.0m, 0.0m, 0.0m ! Slice}
*.ue[25].mobility.initFromDisplayString = false
*.ue[26].mobility.initialX = ${1530.4680217066743m, 1371.64m, 2629.31m, 1113.01m, 1123.77m, 2821.72m, 2671.81m, 1793.63m, 1354.73m, 2514.72m ! Slice}