#Function: ilp_sliced_ini
#Parameters:
#   filename: ../Network_CCOpMv/_5G/simulations/disaster_percentage_0/micro_power_30/chosen_seed_5/ilp_single_sliced_15.ini
#   seed: 5
#   size_y: 4000
#   size_x: 4000
#   size_sector: 400
#   n_macros: 1
#   min_sinr: 15
#   repetitions: 1
#   multi_carriers: False
#   slice_time: 1
#   is_micro: True
#   p_size: 1428
#   app: video
#   target_f: 10
#   extra_config_name: video
#   result_dir: Solutions/disaster_percentage_0/micro_power_30/chosen_seed_5
#   mode: single
#   network_name: ILPSingleNet15
#   net_dir: _5G/networks/disaster_percentage_0/micro_power_30/chosen_seed_5
#   cmdenv_config: True
#   micro_power: 30
#   xml_filename: ilp_move_users-5.sna
#   num_bands: [100]
#Extra = Using 1 macros with 60 ues each. Slicing 10s in 10 different simulations. Using microcells.
[General]
sim-time-limit = 10s

############### Statistics ###############
output-scalar-file = ${resultdir}/${configname}/${repetition}.sca
output-vector-file = ${resultdir}/${configname}/${repetition}.vec
**.vector-recording = false
eventlog-file = ${resultdir}/${configname}/${repetition}.elog
seed-set = ${repetition}

[Config ilp_single_sliced_15_video]
network = _5G.networks.disaster_percentage_0.micro_power_30.chosen_seed_5.ILPSingleNet15
sim-time-limit = 1s
repeat = 1
seed-set = ${repetition}
num-rngs = 2
seed-1-mt = 5

############### Outputs ###############
**.eNB*.cellularNic.channelModel[*].idRcvdSinr:vector.vector-recording = true
**.eNB*.cellularNic.channelModel[*].rcvdSinr:vector.vector-recording = true
**.app[*].throughput:vector.vector-recording = true
**.app[*].endToEndDelay:vector.vector-recording = true
output-scalar-file = ${resultdir}/ilp_single_sliced_15_video/15-${RBs}-${repetition}-${Slice}.sca
output-vector-file = ${resultdir}/ilp_single_sliced_15_video/15-${RBs}-${repetition}-${Slice}.vec
**.vector-recording = false
eventlog-file = ${resultdir}/ilp_single_sliced_15_video/15-${RBs}-${repetition}-${Slice}.elog

############### Cmdenv ###############
cmdenv-performance-display = false
cmdenv-redirect-output = true
cmdenv-output-file = ${resultdir}/ilp_single_sliced_15_video-cmdout/15-${RBs}-${repetition}-${Slice}.out

############### Snapshots ###############
snapshot-file = ../../../Functions/ilp_single_sliced_15_video-RBs_${RBs}-Slice_${Slice}-15-${repetition}.sna
**.snapshotter.snapshot = false
**.snapshotter.delay = 1.0

############### Transmission Power ###############
**.ueTxPower = 24
**.eNodeBTxPower = 46
**.microTxPower = 30
**.cellularNic.phy.txDirection = "OMNI"

############### Channel Control ###############
**.numComponentCarriers = 1
*.carrierAggregation.componentCarrier[0].carrierFrequency = 0.7GHz

############### Channel Model ###############
**.cellularNic.LteChannelModelType = "MoreInfoChannelModel"
**.cellularNic.channelModel[*].building_height = 20
**.cellularNic.channelModel[*].nodeb_height = 18
**.cellularNic.channelModel[*].ue_height = 1.5
**.cellularNic.channelModel[*].street_wide = 20
**.cellularNic.channelModel[*].fading_type = "JAKES"
**.cellularNic.channelModel[*].extCell_interference = false
**.cellularNic.channelModel[*].antennGainEnB = 18
**.cellularNic.channelModel[*].antennGainMicro = 5
**.cellularNic.channelModel[*].antennaGainUe = -1
**.cellularNic.channelModel[*].bs_noise_figure = 9
**.cellularNic.channelModel[*].cable_loss = 2
**.cellularNic.channelModel[*].componentCarrierIndex = 0
**.cellularNic.channelModel[*].correlation_distance = 50
**.cellularNic.channelModel[*].d2d_interference = true
**.cellularNic.channelModel[*].delay_rms = 363e-9
**.cellularNic.channelModel[*].downlink_interference = false
**.cellularNic.channelModel[*].dynamic_los = false
**.cellularNic.channelModel[*].enable_extCell_los = true
**.cellularNic.channelModel[*].fading = true
**.cellularNic.channelModel[*].fading_paths = 6
**.cellularNic.channelModel[*].fixed_los = false
**.cellularNic.channelModel[*].harqReduction = 0.2
**.cellularNic.channelModel[*].inside_building = false
**.cellularNic.channelModel[*].lambdaMaxTh = 0.2
**.cellularNic.channelModel[*].lambdaMinTh = 0.02
**.cellularNic.channelModel[*].lambdaRatioTh = 20
**.cellularNic.channelModel[*].rsrqScale = 1.0
**.cellularNic.channelModel[*].rsrqShift = 22
**.cellularNic.channelModel[*].shadowing = true
**.cellularNic.channelModel[*].targetBler = 0.01
**.cellularNic.channelModel[*].thermalNoise = -104.5
**.cellularNic.channelModel[*].tolerateMaxDistViolation = true
**.cellularNic.channelModel[*].ue_noise_figure = 7
**.cellularNic.channelModel[*].uplink_interference = false
**.cellularNic.channelModel[*].useRsrqFromLog = false
**.cellularNic.channelModel[*].useTorus = false
**.cellularNic.channelModel[*].num_slice = ${Slice= 0, 1, 2, 3, 4, 5, 6, 7, 8, 9}
**.cellularNic.channelModel[*].num_enbs = ${NumEnbs= 2, 7, 7, 7, 7, 7, 7, 7, 7, 7 ! Slice}

############### Resource Blocks ###############
**.numBands = ${RBs= 100}

############### eNBs ###############
**.eNB0.cellInfo.microCell = true
**.eNB1.cellInfo.microCell = true
**.eNB2.cellInfo.microCell = true
**.eNB3.cellInfo.microCell = true
**.eNB4.cellInfo.microCell = true
**.eNB5.cellInfo.microCell = true
**.eNB6.cellInfo.microCell = true

############### UEs ###############
**.numUe = 60

# Conecting UEs to eNodeB
**.ue[0].macCellId = ${5, 3, 6, 3, 5, 4, 2, 4, 1, 1 ! Slice}
**.ue[0].masterId = ${5, 3, 6, 3, 5, 4, 2, 4, 1, 1 ! Slice}
**.ue[1].macCellId = ${5, 5, 3, 6, 3, 6, 3, 3, 5, 1 ! Slice}
**.ue[1].masterId = ${5, 5, 3, 6, 3, 6, 3, 3, 5, 1 ! Slice}
**.ue[2].macCellId = ${5, 6, 1, 1, 7, 1, 3, 5, 2, 2 ! Slice}
**.ue[2].masterId = ${5, 6, 1, 1, 7, 1, 3, 5, 2, 2 ! Slice}
**.ue[3].macCellId = ${5, 2, 7, 5, 3, 4, 4, 1, 3, 6 ! Slice}
**.ue[3].masterId = ${5, 2, 7, 5, 3, 4, 4, 1, 3, 6 ! Slice}
**.ue[4].macCellId = ${5, 5, 3, 3, 1, 1, 1, 1, 3, 4 ! Slice}
**.ue[4].masterId = ${5, 5, 3, 3, 1, 1, 1, 1, 3, 4 ! Slice}
**.ue[5].macCellId = ${5, 1, 3, 6, 3, 5, 5, 1, 7, 2 ! Slice}
**.ue[5].masterId = ${5, 1, 3, 6, 3, 5, 5, 1, 7, 2 ! Slice}
**.ue[6].macCellId = ${5, 4, 6, 6, 6, 7, 6, 4, 4, 5 ! Slice}
**.ue[6].masterId = ${5, 4, 6, 6, 6, 7, 6, 4, 4, 5 ! Slice}
**.ue[7].macCellId = ${5, 3, 1, 2, 6, 4, 2, 3, 1, 4 ! Slice}
**.ue[7].masterId = ${5, 3, 1, 2, 6, 4, 2, 3, 1, 4 ! Slice}
**.ue[8].macCellId = ${5, 5, 2, 1, 3, 2, 5, 6, 7, 7 ! Slice}
**.ue[8].masterId = ${5, 5, 2, 1, 3, 2, 5, 6, 7, 7 ! Slice}
**.ue[9].macCellId = ${5, 4, 2, 4, 1, 6, 3, 3, 6, 3 ! Slice}
**.ue[9].masterId = ${5, 4, 2, 4, 1, 6, 3, 3, 6, 3 ! Slice}
**.ue[10].macCellId = ${5, 4, 3, 5, 3, 2, 5, 3, 3, 2 ! Slice}
**.ue[10].masterId = ${5, 4, 3, 5, 3, 2, 5, 3, 3, 2 ! Slice}
**.ue[11].macCellId = ${5, 2, 5, 6, 2, 1, 1, 6, 5, 2 ! Slice}
**.ue[11].masterId = ${5, 2, 5, 6, 2, 1, 1, 6, 5, 2 ! Slice}
**.ue[12].macCellId = ${5, 6, 3, 1, 2, 3, 1, 4, 7, 1 ! Slice}
**.ue[12].masterId = ${5, 6, 3, 1, 2, 3, 1, 4, 7, 1 ! Slice}
**.ue[13].macCellId = ${5, 6, 7, 6, 6, 4, 5, 3, 1, 3 ! Slice}
**.ue[13].masterId = ${5, 6, 7, 6, 6, 4, 5, 3, 1, 3 ! Slice}
**.ue[14].macCellId = ${5, 4, 3, 1, 2, 3, 1, 1, 1, 2 ! Slice}
**.ue[14].masterId = ${5, 4, 3, 1, 2, 3, 1, 1, 1, 2 ! Slice}
**.ue[15].macCellId = ${5, 4, 2, 4, 5, 3, 3, 5, 5, 5 ! Slice}
**.ue[15].masterId = ${5, 4, 2, 4, 5, 3, 3, 5, 5, 5 ! Slice}
**.ue[16].macCellId = ${5, 5, 4, 4, 2, 7, 1, 5, 6, 3 ! Slice}
**.ue[16].masterId = ${5, 5, 4, 4, 2, 7, 1, 5, 6, 3 ! Slice}
**.ue[17].macCellId = ${5, 2, 5, 5, 2, 1, 5, 6, 1, 5 ! Slice}
**.ue[17].masterId = ${5, 2, 5, 5, 2, 1, 5, 6, 1, 5 ! Slice}
**.ue[18].macCellId = ${5, 3, 2, 1, 3, 4, 7, 6, 4, 2 ! Slice}
**.ue[18].masterId = ${5, 3, 2, 1, 3, 4, 7, 6, 4, 2 ! Slice}
**.ue[19].macCellId = ${5, 1, 6, 1, 1, 5, 1, 1, 7, 1 ! Slice}
**.ue[19].masterId = ${5, 1, 6, 1, 1, 5, 1, 1, 7, 1 ! Slice}
**.ue[20].macCellId = ${5, 4, 1, 5, 1, 1, 7, 1, 1, 5 ! Slice}
**.ue[20].masterId = ${5, 4, 1, 5, 1, 1, 7, 1, 1, 5 ! Slice}
**.ue[21].macCellId = ${5, 7, 6, 7, 5, 1, 3, 1, 2, 3 ! Slice}
**.ue[21].masterId = ${5, 7, 6, 7, 5, 1, 3, 1, 2, 3 ! Slice}
**.ue[22].macCellId = ${5, 2, 3, 7, 5, 1, 1, 5, 6, 4 ! Slice}
**.ue[22].masterId = ${5, 2, 3, 7, 5, 1, 1, 5, 6, 4 ! Slice}
**.ue[23].macCellId = ${5, 7, 6, 4, 5, 1, 1, 1, 1, 5 ! Slice}
**.ue[23].masterId = ${5, 7, 6, 4, 5, 1, 1, 1, 1, 5 ! Slice}
**.ue[24].macCellId = ${5, 3, 6, 3, 3, 3, 1, 1, 4, 7 ! Slice}
**.ue[24].masterId = ${5, 3, 6, 3, 3, 3, 1, 1, 4, 7 ! Slice}
**.ue[25].macCellId = ${5, 1, 7, 7, 2, 4, 1, 6, 6, 3 ! Slice}
**.ue[25].masterId = ${5, 1, 7, 7, 2, 4, 1, 6, 6, 3 ! Slice}
**.ue[26].macCellId = ${5, 3, 5, 7, 4, 2, 6, 3, 7, 4 ! Slice}
**.ue[26].masterId = ${5, 3, 5, 7, 4, 2, 6, 3, 7, 4 ! Slice}
**.ue[27].macCellId = ${5, 6, 1, 2, 4, 5, 3, 5, 2, 1 ! Slice}
**.ue[27].masterId = ${5, 6, 1, 2, 4, 5, 3, 5, 2, 1 ! Slice}
**.ue[28].macCellId = ${5, 4, 5, 1, 5, 6, 5, 3, 2, 2 ! Slice}
**.ue[28].masterId = ${5, 4, 5, 1, 5, 6, 5, 3, 2, 2 ! Slice}
**.ue[29].macCellId = ${5, 1, 6, 2, 4, 2, 4, 5, 1, 5 ! Slice}
**.ue[29].masterId = ${5, 1, 6, 2, 4, 2, 4, 5, 1, 5 ! Slice}
**.ue[30].macCellId = ${5, 3, 6, 1, 3, 6, 6, 1, 4, 5 ! Slice}
**.ue[30].masterId = ${5, 3, 6, 1, 3, 6, 6, 1, 4, 5 ! Slice}
**.ue[31].macCellId = ${5, 6, 4, 1, 3, 7, 1, 3, 5, 7 ! Slice}
**.ue[31].masterId = ${5, 6, 4, 1, 3, 7, 1, 3, 5, 7 ! Slice}
**.ue[32].macCellId = ${5, 7, 7, 3, 1, 1, 3, 4, 6, 6 ! Slice}
**.ue[32].masterId = ${5, 7, 7, 3, 1, 1, 3, 4, 6, 6 ! Slice}
**.ue[33].macCellId = ${5, 3, 1, 4, 5, 3, 2, 6, 6, 3 ! Slice}
**.ue[33].masterId = ${5, 3, 1, 4, 5, 3, 2, 6, 6, 3 ! Slice}
**.ue[34].macCellId = ${5, 6, 2, 4, 4, 3, 1, 6, 1, 7 ! Slice}
**.ue[34].masterId = ${5, 6, 2, 4, 4, 3, 1, 6, 1, 7 ! Slice}
**.ue[35].macCellId = ${5, 3, 2, 3, 5, 4, 6, 4, 1, 1 ! Slice}
**.ue[35].masterId = ${5, 3, 2, 3, 5, 4, 6, 4, 1, 1 ! Slice}
**.ue[36].macCellId = ${5, 1, 2, 7, 4, 5, 3, 3, 5, 1 ! Slice}
**.ue[36].masterId = ${5, 1, 2, 7, 4, 5, 3, 3, 5, 1 ! Slice}
**.ue[37].macCellId = ${5, 5, 1, 6, 5, 5, 1, 6, 1, 6 ! Slice}
**.ue[37].masterId = ${5, 5, 1, 6, 5, 5, 1, 6, 1, 6 ! Slice}
**.ue[38].macCellId = ${5, 5, 5, 1, 7, 1, 4, 4, 2, 4 ! Slice}
**.ue[38].masterId = ${5, 5, 5, 1, 7, 1, 4, 4, 2, 4 ! Slice}
**.ue[39].macCellId = ${5, 2, 7, 3, 1, 4, 7, 7, 5, 1 ! Slice}
**.ue[39].masterId = ${5, 2, 7, 3, 1, 4, 7, 7, 5, 1 ! Slice}
**.ue[40].macCellId = ${5, 6, 1, 4, 6, 1, 4, 7, 5, 1 ! Slice}
**.ue[40].masterId = ${5, 6, 1, 4, 6, 1, 4, 7, 5, 1 ! Slice}
**.ue[41].macCellId = ${5, 7, 4, 1, 1, 6, 1, 1, 4, 3 ! Slice}
**.ue[41].masterId = ${5, 7, 4, 1, 1, 6, 1, 1, 4, 3 ! Slice}
**.ue[42].macCellId = ${5, 3, 6, 4, 2, 5, 3, 3, 7, 2 ! Slice}
**.ue[42].masterId = ${5, 3, 6, 4, 2, 5, 3, 3, 7, 2 ! Slice}
**.ue[43].macCellId = ${5, 7, 6, 5, 1, 3, 5, 7, 5, 1 ! Slice}
**.ue[43].masterId = ${5, 7, 6, 5, 1, 3, 5, 7, 5, 1 ! Slice}
**.ue[44].macCellId = ${5, 2, 1, 1, 3, 6, 7, 4, 1, 2 ! Slice}
**.ue[44].masterId = ${5, 2, 1, 1, 3, 6, 7, 4, 1, 2 ! Slice}
**.ue[45].macCellId = ${5, 7, 4, 3, 5, 7, 3, 1, 2, 6 ! Slice}
**.ue[45].masterId = ${5, 7, 4, 3, 5, 7, 3, 1, 2, 6 ! Slice}
**.ue[46].macCellId = ${5, 6, 3, 3, 6, 3, 5, 3, 5, 5 ! Slice}
**.ue[46].masterId = ${5, 6, 3, 3, 6, 3, 5, 3, 5, 5 ! Slice}
**.ue[47].macCellId = ${5, 5, 1, 2, 7, 5, 3, 3, 4, 2 ! Slice}
**.ue[47].masterId = ${5, 5, 1, 2, 7, 5, 3, 3, 4, 2 ! Slice}
**.ue[48].macCellId = ${5, 7, 4, 3, 4, 7, 3, 1, 4, 6 ! Slice}
**.ue[48].masterId = ${5, 7, 4, 3, 4, 7, 3, 1, 4, 6 ! Slice}
**.ue[49].macCellId = ${5, 6, 1, 5, 6, 1, 5, 5, 1, 7 ! Slice}
**.ue[49].masterId = ${5, 6, 1, 5, 6, 1, 5, 5, 1, 7 ! Slice}
**.ue[50].macCellId = ${5, 5, 1, 4, 2, 4, 5, 5, 3, 3 ! Slice}
**.ue[50].masterId = ${5, 5, 1, 4, 2, 4, 5, 5, 3, 3 ! Slice}
**.ue[51].macCellId = ${5, 1, 1, 3, 4, 7, 6, 5, 1, 3 ! Slice}
**.ue[51].masterId = ${5, 1, 1, 3, 4, 7, 6, 5, 1, 3 ! Slice}
**.ue[52].macCellId = ${5, 4, 6, 7, 6, 5, 4, 5, 3, 2 ! Slice}
**.ue[52].masterId = ${5, 4, 6, 7, 6, 5, 4, 5, 3, 2 ! Slice}
**.ue[53].macCellId = ${5, 1, 4, 4, 3, 5, 6, 5, 1, 7 ! Slice}
**.ue[53].masterId = ${5, 1, 4, 4, 3, 5, 6, 5, 1, 7 ! Slice}
**.ue[54].macCellId = ${6, 5, 2, 7, 2, 4, 4, 2, 4, 4 ! Slice}
**.ue[54].masterId = ${6, 5, 2, 7, 2, 4, 4, 2, 4, 4 ! Slice}
**.ue[55].macCellId = ${6, 3, 5, 4, 2, 1, 3, 5, 2, 6 ! Slice}
**.ue[55].masterId = ${6, 3, 5, 4, 2, 1, 3, 5, 2, 6 ! Slice}
**.ue[56].macCellId = ${6, 4, 3, 1, 1, 3, 4, 6, 6, 5 ! Slice}
**.ue[56].masterId = ${6, 4, 3, 1, 1, 3, 4, 6, 6, 5 ! Slice}
**.ue[57].macCellId = ${6, 7, 5, 2, 2, 1, 4, 6, 3, 2 ! Slice}
**.ue[57].masterId = ${6, 7, 5, 2, 2, 1, 4, 6, 3, 2 ! Slice}
**.ue[58].macCellId = ${6, 1, 1, 4, 2, 2, 4, 1, 5, 3 ! Slice}
**.ue[58].masterId = ${6, 1, 1, 4, 2, 2, 4, 1, 5, 3 ! Slice}
**.ue[59].macCellId = ${6, 3, 6, 3, 5, 2, 2, 4, 7, 1 ! Slice}
**.ue[59].masterId = ${6, 3, 6, 3, 5, 2, 2, 4, 7, 1 ! Slice}

# Scheduler
**.schedulingDisciplineUl = ${sched= "MAXCI"}
**.schedulingDisciplineDl = ${sched}

############### Scenario ###############

# eNodeBs
**.eNB0.cellularNic.channelModel[*].scenario = "URBAN_MICROCELL"
**.eNB1.cellularNic.channelModel[*].scenario = "URBAN_MICROCELL"
**.eNB2.cellularNic.channelModel[*].scenario = "URBAN_MICROCELL"
**.eNB3.cellularNic.channelModel[*].scenario = "URBAN_MICROCELL"
**.eNB4.cellularNic.channelModel[*].scenario = "URBAN_MICROCELL"
**.eNB5.cellularNic.channelModel[*].scenario = "URBAN_MICROCELL"
**.eNB6.cellularNic.channelModel[*].scenario = "URBAN_MICROCELL"

# UEs
**.ue[0].cellularNic.channelModel[*].scenario = "URBAN_MICROCELL"
**.ue[1].cellularNic.channelModel[*].scenario = "URBAN_MICROCELL"
**.ue[2].cellularNic.channelModel[*].scenario = "URBAN_MICROCELL"
**.ue[3].cellularNic.channelModel[*].scenario = "URBAN_MICROCELL"
**.ue[4].cellularNic.channelModel[*].scenario = "URBAN_MICROCELL"
**.ue[5].cellularNic.channelModel[*].scenario = "URBAN_MICROCELL"
**.ue[6].cellularNic.channelModel[*].scenario = "URBAN_MICROCELL"
**.ue[7].cellularNic.channelModel[*].scenario = "URBAN_MICROCELL"
**.ue[8].cellularNic.channelModel[*].scenario = "URBAN_MICROCELL"
**.ue[9].cellularNic.channelModel[*].scenario = "URBAN_MICROCELL"
**.ue[10].cellularNic.channelModel[*].scenario = "URBAN_MICROCELL"
**.ue[11].cellularNic.channelModel[*].scenario = "URBAN_MICROCELL"
**.ue[12].cellularNic.channelModel[*].scenario = "URBAN_MICROCELL"
**.ue[13].cellularNic.channelModel[*].scenario = "URBAN_MICROCELL"
**.ue[14].cellularNic.channelModel[*].scenario = "URBAN_MICROCELL"
**.ue[15].cellularNic.channelModel[*].scenario = "URBAN_MICROCELL"
**.ue[16].cellularNic.channelModel[*].scenario = "URBAN_MICROCELL"
**.ue[17].cellularNic.channelModel[*].scenario = "URBAN_MICROCELL"
**.ue[18].cellularNic.channelModel[*].scenario = "URBAN_MICROCELL"
**.ue[19].cellularNic.channelModel[*].scenario = "URBAN_MICROCELL"
**.ue[20].cellularNic.channelModel[*].scenario = "URBAN_MICROCELL"
**.ue[21].cellularNic.channelModel[*].scenario = "URBAN_MICROCELL"
**.ue[22].cellularNic.channelModel[*].scenario = "URBAN_MICROCELL"
**.ue[23].cellularNic.channelModel[*].scenario = "URBAN_MICROCELL"
**.ue[24].cellularNic.channelModel[*].scenario = "URBAN_MICROCELL"
**.ue[25].cellularNic.channelModel[*].scenario = "URBAN_MICROCELL"
**.ue[26].cellularNic.channelModel[*].scenario = "URBAN_MICROCELL"
**.ue[27].cellularNic.channelModel[*].scenario = "URBAN_MICROCELL"
**.ue[28].cellularNic.channelModel[*].scenario = "URBAN_MICROCELL"
**.ue[29].cellularNic.channelModel[*].scenario = "URBAN_MICROCELL"
**.ue[30].cellularNic.channelModel[*].scenario = "URBAN_MICROCELL"
**.ue[31].cellularNic.channelModel[*].scenario = "URBAN_MICROCELL"
**.ue[32].cellularNic.channelModel[*].scenario = "URBAN_MICROCELL"
**.ue[33].cellularNic.channelModel[*].scenario = "URBAN_MICROCELL"
**.ue[34].cellularNic.channelModel[*].scenario = "URBAN_MICROCELL"
**.ue[35].cellularNic.channelModel[*].scenario = "URBAN_MICROCELL"
**.ue[36].cellularNic.channelModel[*].scenario = "URBAN_MICROCELL"
**.ue[37].cellularNic.channelModel[*].scenario = "URBAN_MICROCELL"
**.ue[38].cellularNic.channelModel[*].scenario = "URBAN_MICROCELL"
**.ue[39].cellularNic.channelModel[*].scenario = "URBAN_MICROCELL"
**.ue[40].cellularNic.channelModel[*].scenario = "URBAN_MICROCELL"
**.ue[41].cellularNic.channelModel[*].scenario = "URBAN_MICROCELL"
**.ue[42].cellularNic.channelModel[*].scenario = "URBAN_MICROCELL"
**.ue[43].cellularNic.channelModel[*].scenario = "URBAN_MICROCELL"
**.ue[44].cellularNic.channelModel[*].scenario = "URBAN_MICROCELL"
**.ue[45].cellularNic.channelModel[*].scenario = "URBAN_MICROCELL"
**.ue[46].cellularNic.channelModel[*].scenario = "URBAN_MICROCELL"
**.ue[47].cellularNic.channelModel[*].scenario = "URBAN_MICROCELL"
**.ue[48].cellularNic.channelModel[*].scenario = "URBAN_MICROCELL"
**.ue[49].cellularNic.channelModel[*].scenario = "URBAN_MICROCELL"
**.ue[50].cellularNic.channelModel[*].scenario = "URBAN_MICROCELL"
**.ue[51].cellularNic.channelModel[*].scenario = "URBAN_MICROCELL"
**.ue[52].cellularNic.channelModel[*].scenario = "URBAN_MICROCELL"
**.ue[53].cellularNic.channelModel[*].scenario = "URBAN_MICROCELL"
**.ue[54].cellularNic.channelModel[*].scenario = "URBAN_MICROCELL"
**.ue[55].cellularNic.channelModel[*].scenario = "URBAN_MICROCELL"
**.ue[56].cellularNic.channelModel[*].scenario = "URBAN_MICROCELL"
**.ue[57].cellularNic.channelModel[*].scenario = "URBAN_MICROCELL"
**.ue[58].cellularNic.channelModel[*].scenario = "URBAN_MICROCELL"
**.ue[59].cellularNic.channelModel[*].scenario = "URBAN_MICROCELL"

############### Mobility ###############

# eNodeB
*.eNB0.mobility.initialX = 1800.0m
*.eNB0.mobility.initialY = 600.0m
*.eNB0.mobility.initialZ = 0m
*.eNB0.mobility.initFromDisplayString = false
*.eNB1.mobility.initialX = 600.0m
*.eNB1.mobility.initialY = 1000.0m
*.eNB1.mobility.initialZ = 0m
*.eNB1.mobility.initFromDisplayString = false
*.eNB2.mobility.initialX = 3400.0m
*.eNB2.mobility.initialY = 1400.0m
*.eNB2.mobility.initialZ = 0m
*.eNB2.mobility.initFromDisplayString = false
*.eNB3.mobility.initialX = 600.0m
*.eNB3.mobility.initialY = 2600.0m
*.eNB3.mobility.initialZ = 0m
*.eNB3.mobility.initFromDisplayString = false
*.eNB4.mobility.initialX = 2600.0m
*.eNB4.mobility.initialY = 2600.0m
*.eNB4.mobility.initialZ = 0m
*.eNB4.mobility.initFromDisplayString = false
*.eNB5.mobility.initialX = 2600.0m
*.eNB5.mobility.initialY = 3000.0m
*.eNB5.mobility.initialZ = 0m
*.eNB5.mobility.initFromDisplayString = false
*.eNB6.mobility.initialX = 1000.0m
*.eNB6.mobility.initialY = 3800.0m
*.eNB6.mobility.initialZ = 0m
*.eNB6.mobility.initFromDisplayString = false
*.eNB*.mobility.constraintAreaMaxX = 4000 m
*.eNB*.mobility.constraintAreaMaxY = 4000 m
*.eNB*.mobility.constraintAreaMaxZ = inf m
*.eNB*.mobility.constraintAreaMinX = 0 m
*.eNB*.mobility.constraintAreaMinY = 0 m
*.eNB*.mobility.constraintAreaMinZ = -inf m

# UEs

*.ue[*].mobilityType = "LinearMobility"
*.ue[0].mobility.initialX = ${2218.9398500058m, 3168.64m, 3776.94m, 3020.31m, 2177.26m, 1302.15m, 515.452m, 604.717m, 1615.0m, 2324.62m ! Slice}
*.ue[0].mobility.initialY = ${2358.348577716073m, 1273.45m, 2825.9m, 1085.57m, 1807.61m, 3037.1m, 837.044m, 2714.69m, 1538.38m, 889.552m ! Slice}
*.ue[0].mobility.initialZ = ${0m, 0.0m, 0.0m, 0.0m, 0.0m, 0.0m, 0.0m, 0.0m, 0.0m, 0.0m ! Slice}
*.ue[0].mobility.initFromDisplayString = false
*.ue[1].mobility.initialX = ${2324.31113663379m, 2661.77m, 2903.41m, 3170.75m, 3492.95m, 3918.87m, 3570.91m, 3336.77m, 2973.52m, 2618.36m ! Slice}
*.ue[1].mobility.initialY = ${2367.558582251255m, 1731.52m, 833.667m, 3333.26m, 1178.09m, 3438.94m, 1382.6m, 1120.88m, 2680.2m, 1076.65m ! Slice}
*.ue[1].mobility.initialZ = ${0m, 0.0m, 0.0m, 0.0m, 0.0m, 0.0m, 0.0m, 0.0m, 0.0m, 0.0m ! Slice}
*.ue[1].mobility.initFromDisplayString = false
*.ue[2].mobility.initialX = ${2448.5290207551925m, 3665.76m, 2361.18m, 1439.55m, 544.878m, 2230.68m, 3860.98m, 1886.13m, 798.892m, 1110.45m ! Slice}
*.ue[2].mobility.initialY = ${2397.4981739142854m, 3332.15m, 555.813m, 1031.44m, 3729.0m, 1136.47m, 1639.14m, 2462.11m, 1174.47m, 1863.0m ! Slice}
*.ue[2].mobility.initialZ = ${0m, 0.0m, 0.0m, 0.0m, 0.0m, 0.0m, 0.0m, 0.0m, 0.0m, 0.0m ! Slice}
*.ue[2].mobility.initFromDisplayString = false
*.ue[3].mobility.initialX = ${2469.5165979074964m, 171.432m, 1886.39m, 2872.15m, 3956.92m, 1500.22m, 211.612m, 1431.84m, 3241.18m, 3128.88m ! Slice}
*.ue[3].mobility.initialY = ${2398.5883605390004m, 1967.89m, 3987.88m, 2537.11m, 813.814m, 2929.26m, 3138.52m, 911.66m, 1912.79m, 3990.37m ! Slice}
*.ue[3].mobility.initialZ = ${0m, 0.0m, 0.0m, 0.0m, 0.0m, 0.0m, 0.0m, 0.0m, 0.0m, 0.0m ! Slice}
*.ue[3].mobility.initFromDisplayString = false
*.ue[4].mobility.initialX = ${1955.7447864005246m, 2107.53m, 2446.34m, 3362.03m, 1395.0m, 2026.78m, 2560.61m, 1511.46m, 2860.0m, 426.283m ! Slice}
*.ue[4].mobility.initialY = ${2678.0896159103618m, 2066.89m, 1280.71m, 879.993m, 486.61m, 155.197m, 632.391m, 1312.52m, 1941.12m, 2453.22m ! Slice}
*.ue[4].mobility.initialZ = ${0m, 0.0m, 0.0m, 0.0m, 0.0m, 0.0m, 0.0m, 0.0m, 0.0m, 0.0m ! Slice}
*.ue[4].mobility.initFromDisplayString = false
*.ue[5].mobility.initialX = ${2251.5757434300913m, 2590.69m, 3130.89m, 3675.57m, 3760.47m, 3099.95m, 2448.35m, 1907.56m, 1265.21m, 710.498m ! Slice}
*.ue[5].mobility.initialY = ${2618.8453240052468m, 939.176m, 1886.97m, 3168.29m, 1039.93m, 2657.12m, 2046.24m, 796.345m, 3586.9m, 1647.84m ! Slice}
*.ue[5].mobility.initialZ = ${0m, 0.0m, 0.0m, 0.0m, 0.0m, 0.0m, 0.0m, 0.0m, 0.0m, 0.0m ! Slice}
*.ue[5].mobility.initFromDisplayString = false
*.ue[6].mobility.initialX = ${2231.9887775405723m, 487.835m, 1683.08m, 3855.08m, 3656.75m, 972.701m, 2829.93m, 1563.53m, 777.418m, 1704.13m ! Slice}
*.ue[6].mobility.initialY = ${2444.8152666389938m, 2725.2m, 3064.74m, 3469.96m, 3501.85m, 3933.33m, 3473.3m, 2905.49m, 2544.14m, 2350.27m ! Slice}
*.ue[6].mobility.initialZ = ${0m, 0.0m, 0.0m, 0.0m, 0.0m, 0.0m, 0.0m, 0.0m, 0.0m, 0.0m ! Slice}
*.ue[6].mobility.initFromDisplayString = false
*.ue[7].mobility.initialX = ${2375.49431208315m, 3749.06m, 1971.62m, 1191.28m, 3982.24m, 1015.79m, 1012.7m, 3667.61m, 2179.13m, 342.232m ! Slice}
*.ue[7].mobility.initialY = ${2537.0775826215945m, 1686.01m, 285.923m, 1496.43m, 3415.29m, 2647.03m, 1556.73m, 177.173m, 1506.25m, 2649.49m ! Slice}
*.ue[7].mobility.initialZ = ${0m, 0.0m, 0.0m, 0.0m, 0.0m, 0.0m, 0.0m, 0.0m, 0.0m, 0.0m ! Slice}
*.ue[7].mobility.initFromDisplayString = false
*.ue[8].mobility.initialX = ${2291.8896482026607m, 2066.8m, 1181.89m, 3099.86m, 3024.44m, 141.368m, 2248.22m, 3153.17m, 1088.1m, 526.342m ! Slice}
*.ue[8].mobility.initialY = ${2728.4688734145975m, 1707.56m, 723.082m, 3.32968m, 535.148m, 1469.01m, 2208.34m, 2918.19m, 3651.26m, 3846.83m ! Slice}
*.ue[8].mobility.initialZ = ${0m, 0.0m, 0.0m, 0.0m, 0.0m, 0.0m, 0.0m, 0.0m, 0.0m, 0.0m ! Slice}
*.ue[8].mobility.initFromDisplayString = false
*.ue[9].mobility.initialX = ${2351.0517400629737m, 1583.88m, 552.765m, 487.522m, 1423.76m, 2453.57m, 3282.49m, 3929.93m, 3253.9m, 2847.59m ! Slice}
*.ue[9].mobility.initialY = ${2572.8064014665597m, 2336.97m, 1609.54m, 2882.96m, 373.626m, 3861.36m, 830.813m, 1643.41m, 3038.3m, 1994.34m ! Slice}
*.ue[9].mobility.initialZ = ${0m, 0.0m, 0.0m, 0.0m, 0.0m, 0.0m, 0.0m, 0.0m, 0.0m, 0.0m ! Slice}
*.ue[9].mobility.initFromDisplayString = false
*.ue[10].mobility.initialX = ${2186.5229738907105m, 731.024m, 3417.11m, 1747.13m, 2820.8m, 1339.18m, 2113.72m, 3274.81m, 2481.6m, 441.693m ! Slice}
*.ue[10].mobility.initialY = ${2421.5991920731694m, 2330.48m, 2215.74m, 2113.53m, 1954.98m, 1810.3m, 1684.36m, 1592.99m, 1550.77m, 1475.83m ! Slice}
*.ue[10].mobility.initialZ = ${0m, 0.0m, 0.0m, 0.0m, 0.0m, 0.0m, 0.0m, 0.0m, 0.0m, 0.0m ! Slice}
*.ue[10].mobility.initFromDisplayString = false
*.ue[11].mobility.initialX = ${2296.404474055902m, 113.493m, 2576.6m, 3927.11m, 1280.29m, 1496.6m, 2175.73m, 3290.12m, 1702.35m, 260.322m ! Slice}
*.ue[11].mobility.initialY = ${2479.561285196342m, 191.374m, 2147.33m, 3568.06m, 1858.83m, 858.484m, 1362.68m, 3435.59m, 2655.29m, 1354.37m ! Slice}
*.ue[11].mobility.initialZ = ${0m, 0.0m, 0.0m, 0.0m, 0.0m, 0.0m, 0.0m, 0.0m, 0.0m, 0.0m ! Slice}
*.ue[11].mobility.initFromDisplayString = false
*.ue[12].mobility.initialX = ${2069.201072681113m, 3900.56m, 2449.65m, 984.849m, 652.878m, 3589.05m, 2261.53m, 50.586m, 1630.54m, 2600.65m ! Slice}
*.ue[12].mobility.initialY = ${2559.0841165050692m, 3107.27m, 1552.78m, 83.2768m, 1724.84m, 2385.93m, 425.767m, 2215.43m, 3939.73m, 346.784m ! Slice}
*.ue[12].mobility.initialZ = ${0m, 0.0m, 0.0m, 0.0m, 0.0m, 0.0m, 0.0m, 0.0m, 0.0m, 0.0m ! Slice}
*.ue[12].mobility.initFromDisplayString = false
*.ue[13].mobility.initialX = ${2044.203881745785m, 2872.67m, 119.367m, 2972.53m, 2864.25m, 483.975m, 3091.0m, 3265.95m, 1260.74m, 3172.89m ! Slice}
*.ue[13].mobility.initialY = ${2461.650117164466m, 3012.0m, 3703.66m, 3667.78m, 3301.39m, 2784.16m, 2062.46m, 1741.52m, 1307.43m, 443.53m ! Slice}
*.ue[13].mobility.initialZ = ${0m, 0.0m, 0.0m, 0.0m, 0.0m, 0.0m, 0.0m, 0.0m, 0.0m, 0.0m ! Slice}
*.ue[13].mobility.initFromDisplayString = false
*.ue[14].mobility.initialX = ${2770.106091725924m, 892.177m, 2840.87m, 2047.82m, 65.4891m, 3045.34m, 1310.35m, 2834.11m, 2142.32m, 1016.54m ! Slice}
*.ue[14].mobility.initialY = ${2799.3351798865624m, 2308.02m, 1846.65m, 1478.73m, 1218.62m, 845.09m, 422.68m, 140.177m, 429.877m, 783.416m ! Slice}
*.ue[14].mobility.initialZ = ${0m, 0.0m, 0.0m, 0.0m, 0.0m, 0.0m, 0.0m, 0.0m, 0.0m, 0.0m ! Slice}
*.ue[14].mobility.initFromDisplayString = false
*.ue[15].mobility.initialX = ${2768.993503827992m, 1546.27m, 421.843m, 802.439m, 2506.93m, 3035.41m, 3678.79m, 3347.05m, 2069.83m, 1622.31m ! Slice}
*.ue[15].mobility.initialY = ${2558.4002337824895m, 2518.53m, 383.922m, 2149.17m, 1747.27m, 934.174m, 1607.62m, 2551.33m, 2425.87m, 1732.17m ! Slice}
*.ue[15].mobility.initialZ = ${0m, 0.0m, 0.0m, 0.0m, 0.0m, 0.0m, 0.0m, 0.0m, 0.0m, 0.0m ! Slice}
*.ue[15].mobility.initFromDisplayString = false
*.ue[16].mobility.initialX = ${2677.038255931367m, 1910.27m, 932.78m, 150.672m, 674.314m, 1413.0m, 2176.74m, 2768.35m, 3266.25m, 3714.0m ! Slice}
*.ue[16].mobility.initialY = ${2568.159898375298m, 1851.38m, 2415.99m, 2275.87m, 1352.07m, 3860.68m, 579.568m, 2012.15m, 3898.94m, 106.415m ! Slice}
*.ue[16].mobility.initialZ = ${0m, 0.0m, 0.0m, 0.0m, 0.0m, 0.0m, 0.0m, 0.0m, 0.0m, 0.0m ! Slice}
*.ue[16].mobility.initFromDisplayString = false
*.ue[17].mobility.initialX = ${2729.7952360687623m, 389.47m, 1956.01m, 2578.76m, 1174.91m, 1647.22m, 2886.22m, 2531.57m, 935.408m, 3140.66m ! Slice}
*.ue[17].mobility.initialY = ${2524.6062070159596m, 279.752m, 1951.28m, 2692.21m, 1359.5m, 1394.0m, 2535.96m, 2908.03m, 136.953m, 2453.67m ! Slice}
*.ue[17].mobility.initialZ = ${0m, 0.0m, 0.0m, 0.0m, 0.0m, 0.0m, 0.0m, 0.0m, 0.0m, 0.0m ! Slice}
*.ue[17].mobility.initFromDisplayString = false
*.ue[18].mobility.initialX = ${2739.6517646489074m, 3931.49m, 458.279m, 2127.49m, 3426.2m, 967.133m, 1710.99m, 3686.23m, 1162.48m, 948.648m ! Slice}
*.ue[18].mobility.initialY = ${2654.523092852897m, 2081.98m, 585.544m, 606.156m, 1440.7m, 2642.03m, 3737.25m, 3322.11m, 2004.55m, 1159.77m ! Slice}
*.ue[18].mobility.initialZ = ${0m, 0.0m, 0.0m, 0.0m, 0.0m, 0.0m, 0.0m, 0.0m, 0.0m, 0.0m ! Slice}
*.ue[18].mobility.initFromDisplayString = false
*.ue[19].mobility.initialX = ${2780.079591322687m, 2717.92m, 2520.69m, 2378.49m, 2268.27m, 2121.12m, 1992.25m, 1991.1m, 1837.56m, 1704.18m ! Slice}
*.ue[19].mobility.initialY = ${2579.156013175956m, 1064.2m, 3457.53m, 1256.11m, 1574.61m, 2563.3m, 105.632m, 133.697m, 3875.53m, 873.698m ! Slice}
*.ue[19].mobility.initialZ = ${0m, 0.0m, 0.0m, 0.0m, 0.0m, 0.0m, 0.0m, 0.0m, 0.0m, 0.0m ! Slice}
*.ue[19].mobility.initFromDisplayString = false
*.ue[20].mobility.initialX = ${2740.563557050662m, 1421.13m, 1327.47m, 3481.62m, 2595.2m, 1782.49m, 391.148m, 1433.2m, 2512.35m, 3599.4m ! Slice}
*.ue[20].mobility.initialY = ${2613.896770069614m, 2913.31m, 1548.36m, 2510.81m, 74.9409m, 1520.39m, 3835.63m, 1210.14m, 848.929m, 2476.03m ! Slice}
*.ue[20].mobility.initialZ = ${0m, 0.0m, 0.0m, 0.0m, 0.0m, 0.0m, 0.0m, 0.0m, 0.0m, 0.0m ! Slice}
*.ue[20].mobility.initFromDisplayString = false
*.ue[21].mobility.initialX = ${2721.4039622709233m, 1142.31m, 3760.02m, 1215.21m, 1858.99m, 1440.41m, 2929.22m, 2523.52m, 281.857m, 3199.72m ! Slice}
*.ue[21].mobility.initialY = ${2587.6263249320673m, 3344.15m, 3935.22m, 3245.85m, 2586.87m, 1566.73m, 541.066m, 149.279m, 741.837m, 1406.84m ! Slice}
*.ue[21].mobility.initialZ = ${0m, 0.0m, 0.0m, 0.0m, 0.0m, 0.0m, 0.0m, 0.0m, 0.0m, 0.0m ! Slice}
*.ue[21].mobility.initFromDisplayString = false
*.ue[22].mobility.initialX = ${2703.687877807288m, 85.0243m, 3874.7m, 455.18m, 1869.93m, 2783.85m, 1433.07m, 2091.79m, 3540.48m, 1062.21m ! Slice}
*.ue[22].mobility.initialY = ${2635.7341993500795m, 846.121m, 1876.12m, 3941.09m, 2582.38m, 667.874m, 541.564m, 2545.91m, 3639.11m, 2167.51m ! Slice}
*.ue[22].mobility.initialZ = ${0m, 0.0m, 0.0m, 0.0m, 0.0m, 0.0m, 0.0m, 0.0m, 0.0m, 0.0m ! Slice}
*.ue[22].mobility.initFromDisplayString = false
*.ue[23].mobility.initialX = ${2468.9339397385684m, 926.701m, 2871.35m, 950.578m, 1772.63m, 2663.1m, 859.091m, 2677.73m, 2375.86m, 2245.04m ! Slice}
*.ue[23].mobility.initialY = ${2709.550543725042m, 3540.49m, 3687.83m, 2616.04m, 1825.8m, 885.256m, 247.873m, 765.271m, 1545.78m, 2799.08m ! Slice}
*.ue[23].mobility.initialZ = ${0m, 0.0m, 0.0m, 0.0m, 0.0m, 0.0m, 0.0m, 0.0m, 0.0m, 0.0m ! Slice}
*.ue[23].mobility.initFromDisplayString = false
*.ue[24].mobility.initialX = ${2787.113233589072m, 3337.31m, 3804.15m, 3614.79m, 3237.23m, 3054.02m, 2231.61m, 1914.0m, 1420.6m, 1058.24m ! Slice}
*.ue[24].mobility.initialY = ${2598.576090666124m, 973.549m, 3043.86m, 1758.55m, 679.771m, 1378.59m, 1552.24m, 296.671m, 2471.86m, 3294.86m ! Slice}
*.ue[24].mobility.initialZ = ${0m, 0.0m, 0.0m, 0.0m, 0.0m, 0.0m, 0.0m, 0.0m, 0.0m, 0.0m ! Slice}
*.ue[24].mobility.initFromDisplayString = false
*.ue[25].mobility.initialX = ${2729.56944463632m, 1926.51m, 1147.34m, 890.934m, 21.6722m, 916.014m, 2229.52m, 3225.06m, 3769.81m, 3545.74m ! Slice}
*.ue[25].mobility.initialY = ${2593.2176999888943m, 911.061m, 3289.24m, 3672.33m, 525.707m, 2995.43m, 643.865m, 2919.15m, 2966.08m, 714.511m ! Slice}