#Function: ilp_sliced_ini
#Parameters:
#   filename: ../Network_CCOpMv/_5G/simulations/disaster_percentage_0/micro_power_30/chosen_seed_2/ilp_single_sliced_10.ini
#   seed: 2
#   size_y: 4000
#   size_x: 4000
#   size_sector: 400
#   n_macros: 1
#   min_sinr: 10
#   repetitions: 1
#   multi_carriers: False
#   slice_time: 1
#   is_micro: True
#   p_size: 1428
#   app: video
#   target_f: 10
#   extra_config_name: video
#   result_dir: Solutions/disaster_percentage_0/micro_power_30/chosen_seed_2
#   mode: single
#   network_name: ILPSingleNet10
#   net_dir: _5G/networks/disaster_percentage_0/micro_power_30/chosen_seed_2
#   cmdenv_config: True
#   micro_power: 30
#   xml_filename: ilp_move_users-2.sna
#   num_bands: [100]
#Extra = Using 1 macros with 60 ues each. Slicing 10s in 10 different simulations. Using microcells.
[General]
sim-time-limit = 10s

############### Statistics ###############
output-scalar-file = ${resultdir}/${configname}/${repetition}.sca
output-vector-file = ${resultdir}/${configname}/${repetition}.vec
**.vector-recording = false
eventlog-file = ${resultdir}/${configname}/${repetition}.elog
seed-set = ${repetition}

[Config ilp_single_sliced_10_video]
network = _5G.networks.disaster_percentage_0.micro_power_30.chosen_seed_2.ILPSingleNet10
sim-time-limit = 1s
repeat = 1
seed-set = ${repetition}
num-rngs = 2
seed-1-mt = 2

############### Outputs ###############
**.eNB*.cellularNic.channelModel[*].idRcvdSinr:vector.vector-recording = true
**.eNB*.cellularNic.channelModel[*].rcvdSinr:vector.vector-recording = true
**.app[*].throughput:vector.vector-recording = true
**.app[*].endToEndDelay:vector.vector-recording = true
output-scalar-file = ${resultdir}/ilp_single_sliced_10_video/10-${RBs}-${repetition}-${Slice}.sca
output-vector-file = ${resultdir}/ilp_single_sliced_10_video/10-${RBs}-${repetition}-${Slice}.vec
**.vector-recording = false
eventlog-file = ${resultdir}/ilp_single_sliced_10_video/10-${RBs}-${repetition}-${Slice}.elog

############### Cmdenv ###############
cmdenv-performance-display = false
cmdenv-redirect-output = true
cmdenv-output-file = ${resultdir}/ilp_single_sliced_10_video-cmdout/10-${RBs}-${repetition}-${Slice}.out

############### Snapshots ###############
snapshot-file = ../../../Functions/ilp_single_sliced_10_video-RBs_${RBs}-Slice_${Slice}-10-${repetition}.sna
**.snapshotter.snapshot = false
**.snapshotter.delay = 1.0

############### Transmission Power ###############
**.ueTxPower = 24
**.eNodeBTxPower = 46
**.microTxPower = 30
**.cellularNic.phy.txDirection = "OMNI"

############### Channel Control ###############
**.numComponentCarriers = 1
*.carrierAggregation.componentCarrier[0].carrierFrequency = 0.7GHz

############### Channel Model ###############
**.cellularNic.LteChannelModelType = "MoreInfoChannelModel"
**.cellularNic.channelModel[*].building_height = 20
**.cellularNic.channelModel[*].nodeb_height = 18
**.cellularNic.channelModel[*].ue_height = 1.5
**.cellularNic.channelModel[*].street_wide = 20
**.cellularNic.channelModel[*].fading_type = "JAKES"
**.cellularNic.channelModel[*].extCell_interference = false
**.cellularNic.channelModel[*].antennGainEnB = 18
**.cellularNic.channelModel[*].antennGainMicro = 5
**.cellularNic.channelModel[*].antennaGainUe = -1
**.cellularNic.channelModel[*].bs_noise_figure = 9
**.cellularNic.channelModel[*].cable_loss = 2
**.cellularNic.channelModel[*].componentCarrierIndex = 0
**.cellularNic.channelModel[*].correlation_distance = 50
**.cellularNic.channelModel[*].d2d_interference = true
**.cellularNic.channelModel[*].delay_rms = 363e-9
**.cellularNic.channelModel[*].downlink_interference = false
**.cellularNic.channelModel[*].dynamic_los = false
**.cellularNic.channelModel[*].enable_extCell_los = true
**.cellularNic.channelModel[*].fading = true
**.cellularNic.channelModel[*].fading_paths = 6
**.cellularNic.channelModel[*].fixed_los = false
**.cellularNic.channelModel[*].harqReduction = 0.2
**.cellularNic.channelModel[*].inside_building = false
**.cellularNic.channelModel[*].lambdaMaxTh = 0.2
**.cellularNic.channelModel[*].lambdaMinTh = 0.02
**.cellularNic.channelModel[*].lambdaRatioTh = 20
**.cellularNic.channelModel[*].rsrqScale = 1.0
**.cellularNic.channelModel[*].rsrqShift = 22
**.cellularNic.channelModel[*].shadowing = true
**.cellularNic.channelModel[*].targetBler = 0.01
**.cellularNic.channelModel[*].thermalNoise = -104.5
**.cellularNic.channelModel[*].tolerateMaxDistViolation = true
**.cellularNic.channelModel[*].ue_noise_figure = 7
**.cellularNic.channelModel[*].uplink_interference = false
**.cellularNic.channelModel[*].useRsrqFromLog = false
**.cellularNic.channelModel[*].useTorus = false
**.cellularNic.channelModel[*].num_slice = ${Slice= 0, 1, 2, 3, 4, 5, 6, 7, 8, 9}
**.cellularNic.channelModel[*].num_enbs = ${NumEnbs= 2, 5, 5, 5, 5, 5, 5, 5, 5, 5 ! Slice}

############### Resource Blocks ###############
**.numBands = ${RBs= 100}

############### eNBs ###############
**.eNB0.cellInfo.microCell = true
**.eNB1.cellInfo.microCell = true
**.eNB2.cellInfo.microCell = true
**.eNB3.cellInfo.microCell = true
**.eNB4.cellInfo.microCell = true

############### UEs ###############
**.numUe = 60

# Conecting UEs to eNodeB
**.ue[0].macCellId = ${5, 3, 2, 4, 4, 2, 2, 5, 1, 3 ! Slice}
**.ue[0].masterId = ${5, 3, 2, 4, 4, 2, 2, 5, 1, 3 ! Slice}
**.ue[1].macCellId = ${5, 1, 3, 3, 3, 5, 3, 1, 5, 3 ! Slice}
**.ue[1].masterId = ${5, 1, 3, 3, 3, 5, 3, 1, 5, 3 ! Slice}
**.ue[2].macCellId = ${5, 1, 2, 4, 2, 5, 3, 1, 4, 2 ! Slice}
**.ue[2].masterId = ${5, 1, 2, 4, 2, 5, 3, 1, 4, 2 ! Slice}
**.ue[3].macCellId = ${5, 3, 3, 3, 3, 5, 3, 3, 3, 3 ! Slice}
**.ue[3].masterId = ${5, 3, 3, 3, 3, 5, 3, 3, 3, 3 ! Slice}
**.ue[4].macCellId = ${5, 1, 3, 5, 2, 4, 4, 2, 2, 2 ! Slice}
**.ue[4].masterId = ${5, 1, 3, 5, 2, 4, 4, 2, 2, 2 ! Slice}
**.ue[5].macCellId = ${5, 4, 2, 3, 2, 4, 5, 1, 2, 5 ! Slice}
**.ue[5].masterId = ${5, 4, 2, 3, 2, 4, 5, 1, 2, 5 ! Slice}
**.ue[6].macCellId = ${5, 4, 5, 3, 2, 1, 1, 3, 4, 4 ! Slice}
**.ue[6].masterId = ${5, 4, 5, 3, 2, 1, 1, 3, 4, 4 ! Slice}
**.ue[7].macCellId = ${5, 2, 2, 5, 3, 2, 3, 5, 2, 2 ! Slice}
**.ue[7].masterId = ${5, 2, 2, 5, 3, 2, 3, 5, 2, 2 ! Slice}
**.ue[8].macCellId = ${5, 5, 4, 3, 2, 2, 3, 2, 1, 2 ! Slice}
**.ue[8].masterId = ${5, 5, 4, 3, 2, 2, 3, 2, 1, 2 ! Slice}
**.ue[9].macCellId = ${5, 5, 4, 5, 5, 5, 4, 5, 4, 5 ! Slice}
**.ue[9].masterId = ${5, 5, 4, 5, 5, 5, 4, 5, 4, 5 ! Slice}
**.ue[10].macCellId = ${5, 1, 2, 5, 5, 2, 3, 5, 2, 2 ! Slice}
**.ue[10].masterId = ${5, 1, 2, 5, 5, 2, 3, 5, 2, 2 ! Slice}
**.ue[11].macCellId = ${5, 3, 3, 5, 1, 3, 3, 1, 5, 3 ! Slice}
**.ue[11].masterId = ${5, 3, 3, 5, 1, 3, 3, 1, 5, 3 ! Slice}
**.ue[12].macCellId = ${5, 3, 3, 5, 2, 2, 4, 1, 3, 3 ! Slice}
**.ue[12].masterId = ${5, 3, 3, 5, 2, 2, 4, 1, 3, 3 ! Slice}
**.ue[13].macCellId = ${5, 4, 4, 5, 4, 2, 2, 2, 3, 1 ! Slice}
**.ue[13].masterId = ${5, 4, 4, 5, 4, 2, 2, 2, 3, 1 ! Slice}
**.ue[14].macCellId = ${5, 1, 4, 3, 3, 5, 4, 2, 5, 5 ! Slice}
**.ue[14].masterId = ${5, 1, 4, 3, 3, 5, 4, 2, 5, 5 ! Slice}
**.ue[15].macCellId = ${5, 1, 4, 1, 3, 5, 3, 1, 4, 4 ! Slice}
**.ue[15].masterId = ${5, 1, 4, 1, 3, 5, 3, 1, 4, 4 ! Slice}
**.ue[16].macCellId = ${5, 5, 4, 5, 3, 4, 3, 4, 5, 5 ! Slice}
**.ue[16].masterId = ${5, 5, 4, 5, 3, 4, 3, 4, 5, 5 ! Slice}
**.ue[17].macCellId = ${5, 3, 2, 2, 1, 3, 1, 4, 2, 3 ! Slice}
**.ue[17].masterId = ${5, 3, 2, 2, 1, 3, 1, 4, 2, 3 ! Slice}
**.ue[18].macCellId = ${5, 2, 1, 3, 3, 5, 2, 2, 5, 3 ! Slice}
**.ue[18].masterId = ${5, 2, 1, 3, 3, 5, 2, 2, 5, 3 ! Slice}
**.ue[19].macCellId = ${5, 4, 5, 3, 2, 1, 3, 2, 4, 5 ! Slice}
**.ue[19].masterId = ${5, 4, 5, 3, 2, 1, 3, 2, 4, 5 ! Slice}
**.ue[20].macCellId = ${5, 1, 4, 5, 3, 3, 4, 2, 3, 5 ! Slice}
**.ue[20].masterId = ${5, 1, 4, 5, 3, 3, 4, 2, 3, 5 ! Slice}
**.ue[21].macCellId = ${5, 3, 2, 3, 5, 4, 3, 2, 2, 5 ! Slice}
**.ue[21].masterId = ${5, 3, 2, 3, 5, 4, 3, 2, 2, 5 ! Slice}
**.ue[22].macCellId = ${5, 1, 3, 3, 2, 4, 4, 4, 2, 5 ! Slice}
**.ue[22].masterId = ${5, 1, 3, 3, 2, 4, 4, 4, 2, 5 ! Slice}
**.ue[23].macCellId = ${5, 1, 2, 4, 1, 3, 5, 5, 2, 5 ! Slice}
**.ue[23].masterId = ${5, 1, 2, 4, 1, 3, 5, 5, 2, 5 ! Slice}
**.ue[24].macCellId = ${5, 5, 1, 3, 4, 4, 3, 1, 4, 5 ! Slice}
**.ue[24].masterId = ${5, 5, 1, 3, 4, 4, 3, 1, 4, 5 ! Slice}
**.ue[25].macCellId = ${5, 3, 3, 5, 5, 2, 2, 4, 1, 5 ! Slice}
**.ue[25].masterId = ${5, 3, 3, 5, 5, 2, 2, 4, 1, 5 ! Slice}
**.ue[26].macCellId = ${5, 3, 1, 5, 5, 2, 2, 4, 2, 2 ! Slice}
**.ue[26].masterId = ${5, 3, 1, 5, 5, 2, 2, 4, 2, 2 ! Slice}
**.ue[27].macCellId = ${5, 4, 4, 5, 4, 1, 1, 2, 3, 3 ! Slice}
**.ue[27].masterId = ${5, 4, 4, 5, 4, 1, 1, 2, 3, 3 ! Slice}
**.ue[28].macCellId = ${5, 3, 2, 1, 4, 4, 2, 2, 4, 1 ! Slice}
**.ue[28].masterId = ${5, 3, 2, 1, 4, 4, 2, 2, 4, 1 ! Slice}
**.ue[29].macCellId = ${5, 2, 2, 3, 4, 5, 5, 2, 1, 2 ! Slice}
**.ue[29].masterId = ${5, 2, 2, 3, 4, 5, 5, 2, 1, 2 ! Slice}
**.ue[30].macCellId = ${5, 5, 3, 5, 3, 3, 5, 3, 3, 5 ! Slice}
**.ue[30].masterId = ${5, 5, 3, 5, 3, 3, 5, 3, 3, 5 ! Slice}
**.ue[31].macCellId = ${5, 5, 2, 1, 3, 5, 4, 1, 3, 5 ! Slice}
**.ue[31].masterId = ${5, 5, 2, 1, 3, 5, 4, 1, 3, 5 ! Slice}
**.ue[32].macCellId = ${5, 5, 3, 5, 3, 3, 5, 1, 5, 5 ! Slice}
**.ue[32].masterId = ${5, 5, 3, 5, 3, 3, 5, 1, 5, 5 ! Slice}
**.ue[33].macCellId = ${5, 4, 2, 3, 4, 3, 1, 2, 2, 2 ! Slice}
**.ue[33].masterId = ${5, 4, 2, 3, 4, 3, 1, 2, 2, 2 ! Slice}
**.ue[34].macCellId = ${5, 3, 2, 4, 3, 1, 2, 3, 1, 2 ! Slice}
**.ue[34].masterId = ${5, 3, 2, 4, 3, 1, 2, 3, 1, 2 ! Slice}
**.ue[35].macCellId = ${5, 2, 2, 5, 3, 2, 2, 2, 5, 2 ! Slice}
**.ue[35].masterId = ${5, 2, 2, 5, 3, 2, 2, 2, 5, 2 ! Slice}
**.ue[36].macCellId = ${5, 4, 1, 3, 4, 4, 3, 3, 2, 4 ! Slice}
**.ue[36].masterId = ${5, 4, 1, 3, 4, 4, 3, 3, 2, 4 ! Slice}
**.ue[37].macCellId = ${5, 2, 1, 3, 4, 4, 3, 1, 2, 3 ! Slice}
**.ue[37].masterId = ${5, 2, 1, 3, 4, 4, 3, 1, 2, 3 ! Slice}
**.ue[38].macCellId = ${5, 3, 3, 3, 3, 3, 3, 5, 3, 5 ! Slice}
**.ue[38].masterId = ${5, 3, 3, 3, 3, 3, 3, 5, 3, 5 ! Slice}
**.ue[39].macCellId = ${5, 3, 5, 3, 5, 3, 3, 5, 5, 3 ! Slice}
**.ue[39].masterId = ${5, 3, 5, 3, 5, 3, 3, 5, 5, 3 ! Slice}
**.ue[40].macCellId = ${5, 5, 5, 2, 2, 2, 5, 3, 1, 2 ! Slice}
**.ue[40].masterId = ${5, 5, 5, 2, 2, 2, 5, 3, 1, 2 ! Slice}
**.ue[41].macCellId = ${5, 2, 2, 3, 5, 2, 1, 3, 5, 4 ! Slice}
**.ue[41].masterId = ${5, 2, 2, 3, 5, 2, 1, 3, 5, 4 ! Slice}
**.ue[42].macCellId = ${3, 5, 5, 3, 5, 3, 2, 2, 3, 3 ! Slice}
**.ue[42].masterId = ${3, 5, 5, 3, 5, 3, 2, 2, 3, 3 ! Slice}
**.ue[43].macCellId = ${3, 4, 4, 3, 1, 1, 1, 3, 5, 4 ! Slice}
**.ue[43].masterId = ${3, 4, 4, 3, 1, 1, 1, 3, 5, 4 ! Slice}
**.ue[44].macCellId = ${5, 3, 5, 3, 3, 5, 3, 3, 5, 3 ! Slice}
**.ue[44].masterId = ${5, 3, 5, 3, 3, 5, 3, 3, 5, 3 ! Slice}
**.ue[45].macCellId = ${5, 3, 2, 2, 5, 3, 1, 5, 2, 2 ! Slice}
**.ue[45].masterId = ${5, 3, 2, 2, 5, 3, 1, 5, 2, 2 ! Slice}
**.ue[46].macCellId = ${5, 5, 1, 4, 2, 3, 5, 3, 1, 2 ! Slice}
**.ue[46].masterId = ${5, 5, 1, 4, 2, 3, 5, 3, 1, 2 ! Slice}
**.ue[47].macCellId = ${5, 3, 3, 3, 1, 5, 3, 3, 3, 5 ! Slice}
**.ue[47].masterId = ${5, 3, 3, 3, 1, 5, 3, 3, 3, 5 ! Slice}
**.ue[48].macCellId = ${5, 5, 5, 5, 4, 5, 4, 5, 5, 4 ! Slice}
**.ue[48].masterId = ${5, 5, 5, 5, 4, 5, 4, 5, 5, 4 ! Slice}
**.ue[49].macCellId = ${5, 1, 2, 2, 5, 2, 2, 1, 3, 5 ! Slice}
**.ue[49].masterId = ${5, 1, 2, 2, 5, 2, 2, 1, 3, 5 ! Slice}
**.ue[50].macCellId = ${5, 3, 2, 4, 2, 4, 2, 2, 3, 3 ! Slice}
**.ue[50].masterId = ${5, 3, 2, 4, 2, 4, 2, 2, 3, 3 ! Slice}
**.ue[51].macCellId = ${5, 3, 5, 3, 3, 4, 2, 4, 4, 2 ! Slice}
**.ue[51].masterId = ${5, 3, 5, 3, 3, 4, 2, 4, 4, 2 ! Slice}
**.ue[52].macCellId = ${5, 3, 4, 4, 1, 3, 4, 2, 2, 3 ! Slice}
**.ue[52].masterId = ${5, 3, 4, 4, 1, 3, 4, 2, 2, 3 ! Slice}
**.ue[53].macCellId = ${5, 5, 2, 1, 3, 5, 1, 3, 4, 2 ! Slice}
**.ue[53].masterId = ${5, 5, 2, 1, 3, 5, 1, 3, 4, 2 ! Slice}
**.ue[54].macCellId = ${5, 4, 1, 3, 4, 1, 5, 4, 1, 3 ! Slice}
**.ue[54].masterId = ${5, 4, 1, 3, 4, 1, 5, 4, 1, 3 ! Slice}
**.ue[55].macCellId = ${5, 3, 3, 3, 3, 5, 5, 1, 2, 2 ! Slice}
**.ue[55].masterId = ${5, 3, 3, 3, 3, 5, 5, 1, 2, 2 ! Slice}
**.ue[56].macCellId = ${5, 3, 4, 4, 1, 5, 3, 3, 3, 5 ! Slice}
**.ue[56].masterId = ${5, 3, 4, 4, 1, 5, 3, 3, 3, 5 ! Slice}
**.ue[57].macCellId = ${5, 1, 4, 2, 4, 2, 1, 3, 3, 5 ! Slice}
**.ue[57].masterId = ${5, 1, 4, 2, 4, 2, 1, 3, 3, 5 ! Slice}
**.ue[58].macCellId = ${5, 2, 2, 5, 3, 3, 2, 1, 3, 1 ! Slice}
**.ue[58].masterId = ${5, 2, 2, 5, 3, 3, 2, 1, 3, 1 ! Slice}
**.ue[59].macCellId = ${5, 5, 2, 1, 5, 2, 2, 3, 4, 3 ! Slice}
**.ue[59].masterId = ${5, 5, 2, 1, 5, 2, 2, 3, 4, 3 ! Slice}

# Scheduler
**.schedulingDisciplineUl = ${sched= "MAXCI"}
**.schedulingDisciplineDl = ${sched}

############### Scenario ###############

# eNodeBs
**.eNB0.cellularNic.channelModel[*].scenario = "URBAN_MICROCELL"
**.eNB1.cellularNic.channelModel[*].scenario = "URBAN_MICROCELL"
**.eNB2.cellularNic.channelModel[*].scenario = "URBAN_MICROCELL"
**.eNB3.cellularNic.channelModel[*].scenario = "URBAN_MICROCELL"
**.eNB4.cellularNic.channelModel[*].scenario = "URBAN_MICROCELL"

# UEs
**.ue[0].cellularNic.channelModel[*].scenario = "URBAN_MICROCELL"
**.ue[1].cellularNic.channelModel[*].scenario = "URBAN_MICROCELL"
**.ue[2].cellularNic.channelModel[*].scenario = "URBAN_MICROCELL"
**.ue[3].cellularNic.channelModel[*].scenario = "URBAN_MICROCELL"
**.ue[4].cellularNic.channelModel[*].scenario = "URBAN_MICROCELL"
**.ue[5].cellularNic.channelModel[*].scenario = "URBAN_MICROCELL"
**.ue[6].cellularNic.channelModel[*].scenario = "URBAN_MICROCELL"
**.ue[7].cellularNic.channelModel[*].scenario = "URBAN_MICROCELL"
**.ue[8].cellularNic.channelModel[*].scenario = "URBAN_MICROCELL"
**.ue[9].cellularNic.channelModel[*].scenario = "URBAN_MICROCELL"
**.ue[10].cellularNic.channelModel[*].scenario = "URBAN_MICROCELL"
**.ue[11].cellularNic.channelModel[*].scenario = "URBAN_MICROCELL"
**.ue[12].cellularNic.channelModel[*].scenario = "URBAN_MICROCELL"
**.ue[13].cellularNic.channelModel[*].scenario = "URBAN_MICROCELL"
**.ue[14].cellularNic.channelModel[*].scenario = "URBAN_MICROCELL"
**.ue[15].cellularNic.channelModel[*].scenario = "URBAN_MICROCELL"
**.ue[16].cellularNic.channelModel[*].scenario = "URBAN_MICROCELL"
**.ue[17].cellularNic.channelModel[*].scenario = "URBAN_MICROCELL"
**.ue[18].cellularNic.channelModel[*].scenario = "URBAN_MICROCELL"
**.ue[19].cellularNic.channelModel[*].scenario = "URBAN_MICROCELL"
**.ue[20].cellularNic.channelModel[*].scenario = "URBAN_MICROCELL"
**.ue[21].cellularNic.channelModel[*].scenario = "URBAN_MICROCELL"
**.ue[22].cellularNic.channelModel[*].scenario = "URBAN_MICROCELL"
**.ue[23].cellularNic.channelModel[*].scenario = "URBAN_MICROCELL"
**.ue[24].cellularNic.channelModel[*].scenario = "URBAN_MICROCELL"
**.ue[25].cellularNic.channelModel[*].scenario = "URBAN_MICROCELL"
**.ue[26].cellularNic.channelModel[*].scenario = "URBAN_MICROCELL"
**.ue[27].cellularNic.channelModel[*].scenario = "URBAN_MICROCELL"
**.ue[28].cellularNic.channelModel[*].scenario = "URBAN_MICROCELL"
**.ue[29].cellularNic.channelModel[*].scenario = "URBAN_MICROCELL"
**.ue[30].cellularNic.channelModel[*].scenario = "URBAN_MICROCELL"
**.ue[31].cellularNic.channelModel[*].scenario = "URBAN_MICROCELL"
**.ue[32].cellularNic.channelModel[*].scenario = "URBAN_MICROCELL"
**.ue[33].cellularNic.channelModel[*].scenario = "URBAN_MICROCELL"
**.ue[34].cellularNic.channelModel[*].scenario = "URBAN_MICROCELL"
**.ue[35].cellularNic.channelModel[*].scenario = "URBAN_MICROCELL"
**.ue[36].cellularNic.channelModel[*].scenario = "URBAN_MICROCELL"
**.ue[37].cellularNic.channelModel[*].scenario = "URBAN_MICROCELL"
**.ue[38].cellularNic.channelModel[*].scenario = "URBAN_MICROCELL"
**.ue[39].cellularNic.channelModel[*].scenario = "URBAN_MICROCELL"
**.ue[40].cellularNic.channelModel[*].scenario = "URBAN_MICROCELL"
**.ue[41].cellularNic.channelModel[*].scenario = "URBAN_MICROCELL"
**.ue[42].cellularNic.channelModel[*].scenario = "URBAN_MICROCELL"
**.ue[43].cellularNic.channelModel[*].scenario = "URBAN_MICROCELL"
**.ue[44].cellularNic.channelModel[*].scenario = "URBAN_MICROCELL"
**.ue[45].cellularNic.channelModel[*].scenario = "URBAN_MICROCELL"
**.ue[46].cellularNic.channelModel[*].scenario = "URBAN_MICROCELL"
**.ue[47].cellularNic.channelModel[*].scenario = "URBAN_MICROCELL"
**.ue[48].cellularNic.channelModel[*].scenario = "URBAN_MICROCELL"
**.ue[49].cellularNic.channelModel[*].scenario = "URBAN_MICROCELL"
**.ue[50].cellularNic.channelModel[*].scenario = "URBAN_MICROCELL"
**.ue[51].cellularNic.channelModel[*].scenario = "URBAN_MICROCELL"
**.ue[52].cellularNic.channelModel[*].scenario = "URBAN_MICROCELL"
**.ue[53].cellularNic.channelModel[*].scenario = "URBAN_MICROCELL"
**.ue[54].cellularNic.channelModel[*].scenario = "URBAN_MICROCELL"
**.ue[55].cellularNic.channelModel[*].scenario = "URBAN_MICROCELL"
**.ue[56].cellularNic.channelModel[*].scenario = "URBAN_MICROCELL"
**.ue[57].cellularNic.channelModel[*].scenario = "URBAN_MICROCELL"
**.ue[58].cellularNic.channelModel[*].scenario = "URBAN_MICROCELL"
**.ue[59].cellularNic.channelModel[*].scenario = "URBAN_MICROCELL"

############### Mobility ###############

# eNodeB
*.eNB0.mobility.initialX = 1800.0m
*.eNB0.mobility.initialY = 200.0m
*.eNB0.mobility.initialZ = 0m
*.eNB0.mobility.initFromDisplayString = false
*.eNB1.mobility.initialX = 1000.0m
*.eNB1.mobility.initialY = 1400.0m
*.eNB1.mobility.initialZ = 0m
*.eNB1.mobility.initFromDisplayString = false
*.eNB2.mobility.initialX = 3400.0m
*.eNB2.mobility.initialY = 1800.0m
*.eNB2.mobility.initialZ = 0m
*.eNB2.mobility.initFromDisplayString = false
*.eNB3.mobility.initialX = 600.0m
*.eNB3.mobility.initialY = 3000.0m
*.eNB3.mobility.initialZ = 0m
*.eNB3.mobility.initFromDisplayString = false
*.eNB4.mobility.initialX = 2600.0m
*.eNB4.mobility.initialY = 3400.0m
*.eNB4.mobility.initialZ = 0m
*.eNB4.mobility.initFromDisplayString = false
*.eNB*.mobility.constraintAreaMaxX = 4000 m
*.eNB*.mobility.constraintAreaMaxY = 4000 m
*.eNB*.mobility.constraintAreaMaxZ = inf m
*.eNB*.mobility.constraintAreaMinX = 0 m
*.eNB*.mobility.constraintAreaMinY = 0 m
*.eNB*.mobility.constraintAreaMinZ = -inf m

# UEs

*.ue[*].mobilityType = "LinearMobility"
*.ue[0].mobility.initialX = ${3182.552354623678m, 2297.0m, 1560.59m, 974.19m, 239.987m, 417.902m, 1235.81m, 1967.75m, 2698.57m, 3746.48m ! Slice}
*.ue[0].mobility.initialY = ${3197.783545401807m, 1689.65m, 909.279m, 2559.71m, 2742.84m, 909.39m, 2068.25m, 3276.79m, 1196.55m, 2487.27m ! Slice}
*.ue[0].mobility.initialZ = ${0m, 0.0m, 0.0m, 0.0m, 0.0m, 0.0m, 0.0m, 0.0m, 0.0m, 0.0m ! Slice}
*.ue[0].mobility.initFromDisplayString = false
*.ue[1].mobility.initialX = ${3018.6747846478193m, 3341.24m, 3641.91m, 3946.2m, 3767.91m, 3381.65m, 3081.36m, 2869.08m, 2480.76m, 2183.92m ! Slice}
*.ue[1].mobility.initialY = ${3134.1535222311036m, 264.731m, 2409.88m, 2617.52m, 381.431m, 3122.74m, 2123.73m, 344.401m, 3142.56m, 2144.23m ! Slice}
*.ue[1].mobility.initialZ = ${0m, 0.0m, 0.0m, 0.0m, 0.0m, 0.0m, 0.0m, 0.0m, 0.0m, 0.0m ! Slice}
*.ue[1].mobility.initFromDisplayString = false
*.ue[2].mobility.initialX = ${3308.645465012565m, 1724.51m, 1053.75m, 594.84m, 2155.3m, 3736.73m, 3120.43m, 2161.33m, 500.587m, 759.483m ! Slice}
*.ue[2].mobility.initialY = ${2968.272235739567m, 1053.09m, 1910.78m, 2560.21m, 1378.26m, 3723.72m, 1297.36m, 1037.43m, 2989.03m, 997.106m ! Slice}
*.ue[2].mobility.initialZ = ${0m, 0.0m, 0.0m, 0.0m, 0.0m, 0.0m, 0.0m, 0.0m, 0.0m, 0.0m ! Slice}
*.ue[2].mobility.initFromDisplayString = false
*.ue[3].mobility.initialX = ${3369.2366722248485m, 3432.46m, 3556.75m, 3647.32m, 3790.66m, 3902.47m, 3991.91m, 3930.53m, 3837.53m, 3749.43m ! Slice}
*.ue[3].mobility.initialY = ${2964.6309744787895m, 1223.57m, 2404.87m, 3018.85m, 1253.92m, 3718.65m, 1818.58m, 632.786m, 2877.89m, 2523.86m ! Slice}
*.ue[3].mobility.initialZ = ${0m, 0.0m, 0.0m, 0.0m, 0.0m, 0.0m, 0.0m, 0.0m, 0.0m, 0.0m ! Slice}
*.ue[3].mobility.initFromDisplayString = false
*.ue[4].mobility.initialX = ${3367.458094851457m, 2871.54m, 2378.14m, 1690.12m, 846.262m, 257.884m, 20.678m, 671.338m, 1190.07m, 1993.25m ! Slice}
*.ue[4].mobility.initialY = ${2929.3865854559936m, 686.632m, 1632.19m, 2896.74m, 1077.0m, 3133.39m, 3671.05m, 664.762m, 1747.09m, 2267.05m ! Slice}
*.ue[4].mobility.initialZ = ${0m, 0.0m, 0.0m, 0.0m, 0.0m, 0.0m, 0.0m, 0.0m, 0.0m, 0.0m ! Slice}
*.ue[4].mobility.initFromDisplayString = false
*.ue[5].mobility.initialX = ${3328.9846437050696m, 728.558m, 1473.87m, 3951.51m, 1952.06m, 186.287m, 2693.62m, 1323.81m, 1202.7m, 2943.36m ! Slice}
*.ue[5].mobility.initialY = ${2966.146344010399m, 3039.78m, 1793.23m, 29.8874m, 1411.01m, 2624.65m, 3146.5m, 797.325m, 1027.57m, 3343.12m ! Slice}
*.ue[5].mobility.initialZ = ${0m, 0.0m, 0.0m, 0.0m, 0.0m, 0.0m, 0.0m, 0.0m, 0.0m, 0.0m ! Slice}
*.ue[5].mobility.initFromDisplayString = false
*.ue[6].mobility.initialX = ${3357.775299294631m, 1019.41m, 1969.07m, 2879.05m, 524.044m, 827.215m, 2750.52m, 2112.54m, 182.933m, 1414.34m ! Slice}
*.ue[6].mobility.initialY = ${3008.814335442475m, 3914.59m, 2986.66m, 1853.85m, 794.707m, 290.878m, 523.019m, 1608.02m, 2436.25m, 3054.96m ! Slice}
*.ue[6].mobility.initialZ = ${0m, 0.0m, 0.0m, 0.0m, 0.0m, 0.0m, 0.0m, 0.0m, 0.0m, 0.0m ! Slice}
*.ue[6].mobility.initFromDisplayString = false
*.ue[7].mobility.initialX = ${3266.5851558358313m, 653.018m, 1845.11m, 2872.88m, 2035.85m, 103.815m, 2491.95m, 2882.34m, 433.665m, 1821.86m ! Slice}
*.ue[7].mobility.initialY = ${2956.1612350689106m, 462.972m, 1888.1m, 2944.21m, 2150.59m, 109.471m, 2168.67m, 3248.01m, 990.668m, 1276.36m ! Slice}
*.ue[7].mobility.initialZ = ${0m, 0.0m, 0.0m, 0.0m, 0.0m, 0.0m, 0.0m, 0.0m, 0.0m, 0.0m ! Slice}
*.ue[7].mobility.initFromDisplayString = false
*.ue[8].mobility.initialX = ${3269.4874319107507m, 2660.58m, 534.736m, 2765.37m, 2037.53m, 1133.9m, 3930.37m, 59.306m, 2754.17m, 1536.96m ! Slice}
*.ue[8].mobility.initialY = ${2972.6198627233284m, 2695.54m, 2368.32m, 1901.83m, 1460.24m, 1031.27m, 552.959m, 4.57647m, 409.791m, 915.827m ! Slice}
*.ue[8].mobility.initialZ = ${0m, 0.0m, 0.0m, 0.0m, 0.0m, 0.0m, 0.0m, 0.0m, 0.0m, 0.0m ! Slice}
*.ue[8].mobility.initFromDisplayString = false
*.ue[9].mobility.initialX = ${3363.3660709809997m, 2298.63m, 455.75m, 1899.31m, 2756.29m, 1601.12m, 358.094m, 2640.97m, 694.483m, 1748.61m ! Slice}
*.ue[9].mobility.initialY = ${3007.111112773463m, 3246.08m, 3459.05m, 3707.91m, 3913.01m, 3800.0m, 3665.63m, 3346.53m, 2773.57m, 2485.88m ! Slice}
*.ue[9].mobility.initialZ = ${0m, 0.0m, 0.0m, 0.0m, 0.0m, 0.0m, 0.0m, 0.0m, 0.0m, 0.0m ! Slice}
*.ue[9].mobility.initFromDisplayString = false
*.ue[10].mobility.initialX = ${3371.459505062502m, 2090.85m, 1059.72m, 3202.5m, 3922.1m, 1845.3m, 2165.94m, 2543.98m, 1399.91m, 2132.28m ! Slice}
*.ue[10].mobility.initialY = ${2946.207308646537m, 811.118m, 1858.85m, 3985.84m, 3377.17m, 1405.4m, 2103.37m, 2892.41m, 1925.0m, 1338.86m ! Slice}
*.ue[10].mobility.initialZ = ${0m, 0.0m, 0.0m, 0.0m, 0.0m, 0.0m, 0.0m, 0.0m, 0.0m, 0.0m ! Slice}
*.ue[10].mobility.initFromDisplayString = false
*.ue[11].mobility.initialX = ${3285.812861899594m, 3204.53m, 3125.04m, 3013.85m, 2913.96m, 2808.5m, 2684.47m, 2577.02m, 2509.79m, 2392.01m ! Slice}
*.ue[11].mobility.initialY = ${2926.862799270495m, 679.569m, 1603.83m, 2954.99m, 646.565m, 2344.1m, 2014.43m, 1059.25m, 2527.34m, 1956.91m ! Slice}
*.ue[11].mobility.initialZ = ${0m, 0.0m, 0.0m, 0.0m, 0.0m, 0.0m, 0.0m, 0.0m, 0.0m, 0.0m ! Slice}
*.ue[11].mobility.initFromDisplayString = false
*.ue[12].mobility.initialX = ${3285.5431750403177m, 3974.4m, 3199.12m, 2425.89m, 1205.03m, 227.355m, 891.136m, 1719.32m, 2914.52m, 3891.7m ! Slice}
*.ue[12].mobility.initialY = ${2909.2011728379744m, 820.297m, 1485.68m, 3550.58m, 957.172m, 1885.19m, 2766.27m, 749.018m, 2727.73m, 2411.88m ! Slice}
*.ue[12].mobility.initialZ = ${0m, 0.0m, 0.0m, 0.0m, 0.0m, 0.0m, 0.0m, 0.0m, 0.0m, 0.0m ! Slice}
*.ue[12].mobility.initFromDisplayString = false
*.ue[13].mobility.initialX = ${3324.1809540094255m, 1585.8m, 843.514m, 3317.18m, 973.916m, 1742.98m, 1982.62m, 1107.83m, 3757.63m, 1411.15m ! Slice}
*.ue[13].mobility.initialY = ${2942.6093948635416m, 3307.32m, 3758.55m, 3624.88m, 2902.75m, 2344.55m, 1508.91m, 854.543m, 113.164m, 386.684m ! Slice}
*.ue[13].mobility.initialZ = ${0m, 0.0m, 0.0m, 0.0m, 0.0m, 0.0m, 0.0m, 0.0m, 0.0m, 0.0m ! Slice}
*.ue[13].mobility.initFromDisplayString = false
*.ue[14].mobility.initialX = ${3311.307907608134m, 1900.85m, 902.695m, 2824.3m, 2993.14m, 1977.02m, 616.541m, 787.976m, 2652.19m, 3619.85m ! Slice}
*.ue[14].mobility.initialY = ${2953.3212581081198m, 779.348m, 3111.72m, 1375.91m, 1804.5m, 3433.83m, 2390.6m, 451.734m, 2619.19m, 3939.6m ! Slice}
*.ue[14].mobility.initialZ = ${0m, 0.0m, 0.0m, 0.0m, 0.0m, 0.0m, 0.0m, 0.0m, 0.0m, 0.0m ! Slice}
*.ue[14].mobility.initFromDisplayString = false
*.ue[15].mobility.initialX = ${3275.7691146281645m, 2085.35m, 55.5515m, 1737.43m, 2860.62m, 3631.54m, 2867.5m, 1459.1m, 443.8m, 1181.11m ! Slice}
*.ue[15].mobility.initialY = ${2987.1016832253385m, 657.937m, 3393.4m, 1123.49m, 1186.21m, 3564.93m, 2500.46m, 220.197m, 3429.62m, 2564.86m ! Slice}
*.ue[15].mobility.initialZ = ${0m, 0.0m, 0.0m, 0.0m, 0.0m, 0.0m, 0.0m, 0.0m, 0.0m, 0.0m ! Slice}
*.ue[15].mobility.initFromDisplayString = false
*.ue[16].mobility.initialX = ${3320.364964904015m, 2312.11m, 821.14m, 3090.88m, 3170.53m, 101.812m, 3952.97m, 863.247m, 2765.74m, 2382.37m ! Slice}
*.ue[16].mobility.initialY = ${2930.846626285975m, 2912.47m, 2863.38m, 2813.98m, 2784.63m, 2722.65m, 2652.45m, 2594.42m, 2497.85m, 2443.86m ! Slice}
*.ue[16].mobility.initialZ = ${0m, 0.0m, 0.0m, 0.0m, 0.0m, 0.0m, 0.0m, 0.0m, 0.0m, 0.0m ! Slice}
*.ue[16].mobility.initFromDisplayString = false
*.ue[17].mobility.initialX = ${3368.6883806677956m, 2541.28m, 1264.26m, 1067.06m, 2351.35m, 3728.73m, 2201.76m, 498.097m, 1308.59m, 2846.6m ! Slice}
*.ue[17].mobility.initialY = ${3009.1984794570544m, 1385.49m, 1361.56m, 2224.78m, 215.823m, 2918.79m, 910.213m, 2454.71m, 1991.42m, 1270.47m ! Slice}
*.ue[17].mobility.initialZ = ${0m, 0.0m, 0.0m, 0.0m, 0.0m, 0.0m, 0.0m, 0.0m, 0.0m, 0.0m ! Slice}
*.ue[17].mobility.initFromDisplayString = false
*.ue[18].mobility.initialX = ${3379.6151125085826m, 1059.95m, 1410.28m, 3091.63m, 3824.14m, 2179.66m, 5.90409m, 1185.39m, 2545.85m, 2880.16m ! Slice}
*.ue[18].mobility.initialY = ${2995.866168178825m, 2220.31m, 150.857m, 2201.74m, 3017.4m, 2602.43m, 339.264m, 1006.02m, 2502.17m, 2655.91m ! Slice}
*.ue[18].mobility.initialZ = ${0m, 0.0m, 0.0m, 0.0m, 0.0m, 0.0m, 0.0m, 0.0m, 0.0m, 0.0m ! Slice}
*.ue[18].mobility.initFromDisplayString = false
*.ue[19].mobility.initialX = ${3330.0346730198225m, 465.515m, 1977.7m, 3239.65m, 3.57948m, 2102.63m, 3128.19m, 1923.29m, 1338.98m, 3286.42m ! Slice}
*.ue[19].mobility.initialY = ${2895.3753642690363m, 3971.61m, 3121.51m, 2201.64m, 849.134m, 57.8039m, 854.512m, 1435.31m, 2527.29m, 3392.66m ! Slice}
*.ue[19].mobility.initialZ = ${0m, 0.0m, 0.0m, 0.0m, 0.0m, 0.0m, 0.0m, 0.0m, 0.0m, 0.0m ! Slice}
*.ue[19].mobility.initFromDisplayString = false
*.ue[20].mobility.initialX = ${3258.8103308681766m, 1843.18m, 759.864m, 2660.18m, 3980.4m, 2407.18m, 797.34m, 1181.83m, 3226.56m, 2953.42m ! Slice}
*.ue[20].mobility.initialY = ${2964.2273740465557m, 1039.65m, 2206.0m, 2589.12m, 1069.1m, 1249.2m, 3258.33m, 2119.41m, 1122.61m, 3052.89m ! Slice}
*.ue[20].mobility.initialZ = ${0m, 0.0m, 0.0m, 0.0m, 0.0m, 0.0m, 0.0m, 0.0m, 0.0m, 0.0m ! Slice}
*.ue[20].mobility.initFromDisplayString = false
*.ue[21].mobility.initialX = ${3310.874913527868m, 2296.88m, 22.1822m, 2676.84m, 1626.22m, 1334.95m, 3867.86m, 758.606m, 1044.08m, 3148.1m ! Slice}
*.ue[21].mobility.initialY = ${3008.553650093782m, 1669.61m, 210.419m, 1379.19m, 3436.54m, 2784.94m, 1018.09m, 995.044m, 1846.01m, 3148.82m ! Slice}
*.ue[21].mobility.initialZ = ${0m, 0.0m, 0.0m, 0.0m, 0.0m, 0.0m, 0.0m, 0.0m, 0.0m, 0.0m ! Slice}
*.ue[21].mobility.initFromDisplayString = false
*.ue[22].mobility.initialX = ${3312.381084528434m, 3581.74m, 3221.28m, 2143.76m, 1227.88m, 611.752m, 396.586m, 236.426m, 744.948m, 1759.91m ! Slice}
*.ue[22].mobility.initialY = ${2943.7976582450983m, 324.748m, 2005.61m, 1987.78m, 1127.92m, 2813.67m, 3539.93m, 2499.14m, 606.996m, 2900.92m ! Slice}
*.ue[22].mobility.initialZ = ${0m, 0.0m, 0.0m, 0.0m, 0.0m, 0.0m, 0.0m, 0.0m, 0.0m, 0.0m ! Slice}
*.ue[22].mobility.initFromDisplayString = false
*.ue[23].mobility.initialX = ${3329.9846480952147m, 2988.19m, 1440.67m, 120.888m, 1690.61m, 3157.67m, 3388.36m, 2117.66m, 33.29m, 2539.54m ! Slice}
*.ue[23].mobility.initialY = ${3024.981110952753m, 609.711m, 2082.46m, 3204.29m, 1099.67m, 1360.46m, 3240.95m, 2447.48m, 1265.01m, 2720.69m ! Slice}
*.ue[23].mobility.initialZ = ${0m, 0.0m, 0.0m, 0.0m, 0.0m, 0.0m, 0.0m, 0.0m, 0.0m, 0.0m ! Slice}
*.ue[23].mobility.initFromDisplayString = false
*.ue[24].mobility.initialX = ${3367.086746797251m, 1638.12m, 1638.22m, 2691.62m, 1125.73m, 1117.63m, 3664.79m, 2254.54m, 1003.92m, 2163.38m ! Slice}
*.ue[24].mobility.initialY = ${2996.923966763936m, 3392.62m, 1157.44m, 1870.28m, 3347.99m, 2875.9m, 745.686m, 1045.42m, 3270.94m, 3348.91m ! Slice}
*.ue[24].mobility.initialZ = ${0m, 0.0m, 0.0m, 0.0m, 0.0m, 0.0m, 0.0m, 0.0m, 0.0m, 0.0m ! Slice}
*.ue[24].mobility.initFromDisplayString = false
*.ue[25].mobility.initialX = ${3319.5762533038733m, 3790.33m, 3198.65m, 2604.52m, 2079.51m, 1578.12m, 729.38m, 389.932m, 1239.74m, 2301.96m ! Slice}
*.ue[25].mobility.initialY = ${2940.2520773924916m, 1422.45m, 1986.63m, 3752.93m, 2542.35m, 937.709m, 1954.16m, 2622.36m, 147.708m, 3572.56m ! Slice}
*.ue[25].mobility.initialZ = ${0m, 0.0m, 0.0m, 0.0m, 0.0m, 0.0m, 0.0m, 0.0m, 0.0m, 0.0m ! Slice}
*.ue[25].mobility.initFromDisplayString = false
*.ue[26].mobility.initialX = ${3304.4512843885514m, 2820.98m, 2425.51m, 1986.14m, 1764.82m, 982.194m, 511.801m, 18.0891m, 378.662m, 749.928m ! Slice}
*.ue[26].mobility.initialY = ${2937.5042421589933m, 2078.44m, 23.8818m, 2494.88m, 3763.6m, 1050.09m, 1621.73m, 3031.87m, 1420.82m, 952.624m ! Slice}
*.ue[26].mobility.initialZ = ${0m, 0.0m, 0.0m, 0.0m, 0.0m, 0.0m, 0.0m, 0.0m, 0.0m, 0.0m ! Slice}