[General]
sim-time-limit = 10s

############### Statistics ###############
output-scalar-file = ${resultdir}/${configname}/${repetition}.sca
output-vector-file = ${resultdir}/${configname}/${repetition}.vec
**.vector-recording = false
seed-set = ${repetition}

############### Resource Blocks ###############
**.numBands = ${RBs= 100}

[Config UrbanMacrocell5G]
network = _5G.networks.UrbanMacro5G
sim-time-limit = 10s
repeat = 1
seed-set = 123
num-rngs = 2
seed-1-mt = 123

output-scalar-file = ${resultdir}/${configname}/10-${repetition}.sca
output-vector-file = ${resultdir}/${configname}/10-${repetition}.vec
**.vector-recording = true
#eventlog-file = ${resultdir}/${configname}/10-${RBs}-${repetition}-${Slice}.elog

############### Snapshots ###############
#snapshot-file = ../../../Functions/${configname}-RBs_${RBs}-Slice_${Slice}-10-${repetition}.sna
#**.snapshotter.snapshot = false
#**.snapshotter.delay = 1.0

############### Transmission Power ###############
**.ueTxPower = 24
**.eNodeBTxPower = 46
**.microTxPower = 30
**.cellularNic.phy.txDirection = "OMNI"

############### Channel Control ###############
**.numComponentCarriers = 1
*.carrierAggregation.componentCarrier[0].carrierFrequency = 0.7GHz

############### Channel Model ###############
**.cellularNic.LteChannelModelType = "MoreInfoChannelModel"
**.cellularNic.channelModel[*].building_height = 20
**.cellularNic.channelModel[*].nodeb_height = 18
**.cellularNic.channelModel[*].ue_height = 1.5
**.cellularNic.channelModel[*].street_wide = 20
**.cellularNic.channelModel[*].fading_type = "JAKES"
**.cellularNic.channelModel[*].extCell_interference = false
**.cellularNic.channelModel[*].antennGainEnB = 18
**.cellularNic.channelModel[*].antennGainMicro = 5
**.cellularNic.channelModel[*].antennaGainUe = -1
**.cellularNic.channelModel[*].bs_noise_figure = 9
**.cellularNic.channelModel[*].cable_loss = 2
**.cellularNic.channelModel[*].componentCarrierIndex = 0
**.cellularNic.channelModel[*].correlation_distance = 50
**.cellularNic.channelModel[*].d2d_interference = true
**.cellularNic.channelModel[*].delay_rms = 363e-9
**.cellularNic.channelModel[*].downlink_interference = false
**.cellularNic.channelModel[*].dynamic_los = false
**.cellularNic.channelModel[*].enable_extCell_los = true
**.cellularNic.channelModel[*].fading = true
**.cellularNic.channelModel[*].fading_paths = 6
**.cellularNic.channelModel[*].fixed_los = false
**.cellularNic.channelModel[*].harqReduction = 0.2
**.cellularNic.channelModel[*].inside_building = false
**.cellularNic.channelModel[*].lambdaMaxTh = 0.2
**.cellularNic.channelModel[*].lambdaMinTh = 0.02
**.cellularNic.channelModel[*].lambdaRatioTh = 20
**.cellularNic.channelModel[*].rsrqScale = 1.0
**.cellularNic.channelModel[*].rsrqShift = 22
**.cellularNic.channelModel[*].shadowing = true
**.cellularNic.channelModel[*].targetBler = 0.01
**.cellularNic.channelModel[*].thermalNoise = -104.5
**.cellularNic.channelModel[*].tolerateMaxDistViolation = true
**.cellularNic.channelModel[*].ue_noise_figure = 7
**.cellularNic.channelModel[*].uplink_interference = false
**.cellularNic.channelModel[*].useRsrqFromLog = false
**.cellularNic.channelModel[*].useTorus = false
**.cellularNic.channelModel[*].num_slice = ${Slice= 0, 1, 2, 3, 4, 5, 6, 7, 8, 9}



# Conecting UEs to eNodeB
**.ue[*].macCellId = 1
**.ue[*].masterId = 1
#**.ue[1].macCellId = 1
#**.ue[1].masterId = 1

# Scheduler
**.schedulingDisciplineUl = ${sched= "MAXCI"}
**.schedulingDisciplineDl = ${sched}

############### Mobility ###############

# eNodeB
**.eNB.cellularNic.channelModel[*].scenario = "URBAN_MACROCELL"

# UEs
**.ue[*].cellularNic.channelModel[*].scenario = "URBAN_MACROCELL"

############### Micro Cell ###############
**.eNB.cellInfo.microCell = false

############### Mobility ###############

# eNodeB
*.eNB.mobility.initialX = 500m
*.eNB.mobility.initialY = 500m
*.eNB.mobility.initialZ = 0m
*.eNB.mobility.initFromDisplayString = false
*.eNB.mobility.constraintAreaMaxX = inf m
*.eNB.mobility.constraintAreaMaxY = inf m
*.eNB.mobility.constraintAreaMaxZ = inf m
*.eNB.mobility.constraintAreaMinX = -inf m
*.eNB.mobility.constraintAreaMinY = -inf m
*.eNB.mobility.constraintAreaMinZ = -inf m
#*.eNB.mobilityType = "MassMobility"
#*.eNB.mobility.changeInterval = 0.1s#truncnormal(2s, 0.5s)
#*.eNB.mobility.angleDelta = 0deg#normal(0deg, 30deg)
#*.eNB.mobility.speed = 0mps#truncnormal(15mps, 5mps)

#*.eNB.status.initialStatus = "UP"



# UEs
*.ue[*].mobilityType = "LinearMobility"
*.ue[*].mobility.initFromDisplayString = false
*.ue[*].mobilily.speed = 15mps
*.ue[*].mobility.initialMovementHeading = 0deg
#*.ue[*].mobility.speed = truncnormal(15mps, 5mps)
#*.ue[*].mobility.initialMovementHeading = uniform(0deg, 270deg)
#*.ue[0].mobility.initialMovementHeading = 180deg*.ue[0].mobility.speed = 3 mps
*.ue[0].mobility.initialX = 500m
*.ue[0].mobility.initialY = 800m
*.ue[*].mobility.initialZ = 0.0m
*.ue[1].mobility.initialX = 400m
*.ue[1].mobility.initialY = 400m
*.ue[2].mobility.initialX = 400m
*.ue[2].mobility.initialY = 300m
*.ue[*].mobility.initialX = uniform(0m, 300m)
*.ue[*].mobility.initialY = uniform(0m, 300m)
*.ue[*].mobility.initFromDisplayString = false
*.ue[*].mobility.constraintAreaMaxX = inf m
*.ue[*].mobility.constraintAreaMaxY = inf m
*.ue[*].mobility.constraintAreaMaxZ = inf m
*.ue[*].mobility.constraintAreaMinX = -inf m
*.ue[*].mobility.constraintAreaMinY = -inf m
*.ue[*].mobility.constraintAreaMinZ = -inf m

############### UEs ###############
**.numUe = ${n=1,2,3,15,20,21,60,120}

############### Apps ###############
*.ue[*].numApps = 1
*.server.numApps = 1 * ${n} * 1

# Video Streaming DL
**.ue[*].app[0].typename = "UdpVideoStreamClient"
**.ue[*].app[0].serverAddress = "server"
**.ue[*].app[0].localPort = 9000
**.ue[*].app[0].serverPort = 3088 + ancestorIndex(1)
**.ue[0].app[0].startTime = 0.001s
**.ue[1].app[0].startTime = 11s
**.ue[2].app[0].startTime = 5s
**.ue[*].app[0].startTime = 2s
**.server.app[*].typename = "UdpVideoStreamServer"
**.server.app[*].videoSize = 10MiB
**.server.app[*].localPort = 3088 + ancestorIndex(0)
**.server.app[*].sendInterval = 1.1424ms
**.server.app[*].packetLen = 1428B
**.mtu = 1428B
