#Function: ilp_sliced_ini
#Parameters:
#   filename: ../Network_CCOpMv/_5G/simulations/disaster_percentage_0/micro_power_30/chosen_seed_4/ilp_single_sliced_5.ini
#   seed: 4
#   size_y: 4000
#   size_x: 4000
#   size_sector: 400
#   n_macros: 1
#   min_sinr: 5
#   repetitions: 1
#   multi_carriers: False
#   slice_time: 1
#   is_micro: True
#   p_size: 1428
#   app: video
#   target_f: 10
#   extra_config_name: video
#   result_dir: Solutions/disaster_percentage_0/micro_power_30/chosen_seed_4
#   mode: single
#   network_name: ILPSingleNet5
#   net_dir: _5G/networks/disaster_percentage_0/micro_power_30/chosen_seed_4
#   cmdenv_config: True
#   micro_power: 30
#   xml_filename: ilp_move_users-4.sna
#   num_bands: [100]
#Extra = Using 1 macros with 60 ues each. Slicing 10s in 10 different simulations. Using microcells.
[General]
sim-time-limit = 10s

############### Statistics ###############
output-scalar-file = ${resultdir}/${configname}/${repetition}.sca
output-vector-file = ${resultdir}/${configname}/${repetition}.vec
**.vector-recording = false
eventlog-file = ${resultdir}/${configname}/${repetition}.elog
seed-set = ${repetition}

[Config ilp_single_sliced_5_video]
network = _5G.networks.disaster_percentage_0.micro_power_30.chosen_seed_4.ILPSingleNet5
sim-time-limit = 1s
repeat = 1
seed-set = ${repetition}
num-rngs = 2
seed-1-mt = 4

############### Outputs ###############
**.eNB*.cellularNic.channelModel[*].idRcvdSinr:vector.vector-recording = true
**.eNB*.cellularNic.channelModel[*].rcvdSinr:vector.vector-recording = true
**.app[*].throughput:vector.vector-recording = true
**.app[*].endToEndDelay:vector.vector-recording = true
output-scalar-file = ${resultdir}/ilp_single_sliced_5_video/5-${RBs}-${repetition}-${Slice}.sca
output-vector-file = ${resultdir}/ilp_single_sliced_5_video/5-${RBs}-${repetition}-${Slice}.vec
**.vector-recording = false
eventlog-file = ${resultdir}/ilp_single_sliced_5_video/5-${RBs}-${repetition}-${Slice}.elog

############### Cmdenv ###############
cmdenv-performance-display = false
cmdenv-redirect-output = true
cmdenv-output-file = ${resultdir}/ilp_single_sliced_5_video-cmdout/5-${RBs}-${repetition}-${Slice}.out

############### Snapshots ###############
snapshot-file = ../../../Functions/ilp_single_sliced_5_video-RBs_${RBs}-Slice_${Slice}-5-${repetition}.sna
**.snapshotter.snapshot = false
**.snapshotter.delay = 1.0

############### Transmission Power ###############
**.ueTxPower = 24
**.eNodeBTxPower = 46
**.microTxPower = 30
**.cellularNic.phy.txDirection = "OMNI"

############### Channel Control ###############
**.numComponentCarriers = 1
*.carrierAggregation.componentCarrier[0].carrierFrequency = 0.7GHz

############### Channel Model ###############
**.cellularNic.LteChannelModelType = "MoreInfoChannelModel"
**.cellularNic.channelModel[*].building_height = 20
**.cellularNic.channelModel[*].nodeb_height = 18
**.cellularNic.channelModel[*].ue_height = 1.5
**.cellularNic.channelModel[*].street_wide = 20
**.cellularNic.channelModel[*].fading_type = "JAKES"
**.cellularNic.channelModel[*].extCell_interference = false
**.cellularNic.channelModel[*].antennGainEnB = 18
**.cellularNic.channelModel[*].antennGainMicro = 5
**.cellularNic.channelModel[*].antennaGainUe = -1
**.cellularNic.channelModel[*].bs_noise_figure = 9
**.cellularNic.channelModel[*].cable_loss = 2
**.cellularNic.channelModel[*].componentCarrierIndex = 0
**.cellularNic.channelModel[*].correlation_distance = 50
**.cellularNic.channelModel[*].d2d_interference = true
**.cellularNic.channelModel[*].delay_rms = 363e-9
**.cellularNic.channelModel[*].downlink_interference = false
**.cellularNic.channelModel[*].dynamic_los = false
**.cellularNic.channelModel[*].enable_extCell_los = true
**.cellularNic.channelModel[*].fading = true
**.cellularNic.channelModel[*].fading_paths = 6
**.cellularNic.channelModel[*].fixed_los = false
**.cellularNic.channelModel[*].harqReduction = 0.2
**.cellularNic.channelModel[*].inside_building = false
**.cellularNic.channelModel[*].lambdaMaxTh = 0.2
**.cellularNic.channelModel[*].lambdaMinTh = 0.02
**.cellularNic.channelModel[*].lambdaRatioTh = 20
**.cellularNic.channelModel[*].rsrqScale = 1.0
**.cellularNic.channelModel[*].rsrqShift = 22
**.cellularNic.channelModel[*].shadowing = true
**.cellularNic.channelModel[*].targetBler = 0.01
**.cellularNic.channelModel[*].thermalNoise = -104.5
**.cellularNic.channelModel[*].tolerateMaxDistViolation = true
**.cellularNic.channelModel[*].ue_noise_figure = 7
**.cellularNic.channelModel[*].uplink_interference = false
**.cellularNic.channelModel[*].useRsrqFromLog = false
**.cellularNic.channelModel[*].useTorus = false
**.cellularNic.channelModel[*].num_slice = ${Slice= 0, 1, 2, 3, 4, 5, 6, 7, 8, 9}
**.cellularNic.channelModel[*].num_enbs = ${NumEnbs= 1, 4, 4, 4, 4, 4, 4, 4, 4, 4 ! Slice}

############### Resource Blocks ###############
**.numBands = ${RBs= 100}

############### eNBs ###############
**.eNB0.cellInfo.microCell = true
**.eNB1.cellInfo.microCell = true
**.eNB2.cellInfo.microCell = true
**.eNB3.cellInfo.microCell = true

############### UEs ###############
**.numUe = 60

# Conecting UEs to eNodeB
**.ue[0].macCellId = ${1, 2, 2, 4, 4, 2, 1, 2, 2, 4 ! Slice}
**.ue[0].masterId = ${1, 2, 2, 4, 4, 2, 1, 2, 2, 4 ! Slice}
**.ue[1].macCellId = ${1, 3, 1, 4, 2, 2, 4, 1, 3, 3 ! Slice}
**.ue[1].masterId = ${1, 3, 1, 4, 2, 2, 4, 1, 3, 3 ! Slice}
**.ue[2].macCellId = ${1, 4, 4, 3, 1, 2, 3, 4, 1, 1 ! Slice}
**.ue[2].masterId = ${1, 4, 4, 3, 1, 2, 3, 4, 1, 1 ! Slice}
**.ue[3].macCellId = ${1, 3, 4, 2, 4, 3, 3, 1, 2, 2 ! Slice}
**.ue[3].masterId = ${1, 3, 4, 2, 4, 3, 3, 1, 2, 2 ! Slice}
**.ue[4].macCellId = ${1, 4, 4, 4, 2, 2, 2, 2, 2, 4 ! Slice}
**.ue[4].masterId = ${1, 4, 4, 4, 2, 2, 2, 2, 2, 4 ! Slice}
**.ue[5].macCellId = ${1, 4, 4, 2, 3, 4, 2, 1, 1, 2 ! Slice}
**.ue[5].masterId = ${1, 4, 4, 2, 3, 4, 2, 1, 1, 2 ! Slice}
**.ue[6].macCellId = ${1, 1, 2, 4, 3, 1, 1, 2, 2, 4 ! Slice}
**.ue[6].masterId = ${1, 1, 2, 4, 3, 1, 1, 2, 2, 4 ! Slice}
**.ue[7].macCellId = ${1, 2, 2, 1, 1, 3, 1, 2, 4, 1 ! Slice}
**.ue[7].masterId = ${1, 2, 2, 1, 1, 3, 1, 2, 4, 1 ! Slice}
**.ue[8].macCellId = ${1, 2, 1, 2, 1, 1, 2, 2, 1, 1 ! Slice}
**.ue[8].masterId = ${1, 2, 1, 2, 1, 1, 2, 2, 1, 1 ! Slice}
**.ue[9].macCellId = ${1, 2, 1, 2, 2, 1, 2, 4, 4, 2 ! Slice}
**.ue[9].masterId = ${1, 2, 1, 2, 2, 1, 2, 4, 4, 2 ! Slice}
**.ue[10].macCellId = ${1, 4, 1, 2, 1, 1, 3, 1, 2, 2 ! Slice}
**.ue[10].masterId = ${1, 4, 1, 2, 1, 1, 3, 1, 2, 2 ! Slice}
**.ue[11].macCellId = ${1, 1, 2, 4, 1, 1, 2, 2, 4, 1 ! Slice}
**.ue[11].masterId = ${1, 1, 2, 4, 1, 1, 2, 2, 4, 1 ! Slice}
**.ue[12].macCellId = ${1, 2, 4, 3, 2, 1, 4, 4, 4, 1 ! Slice}
**.ue[12].masterId = ${1, 2, 4, 3, 2, 1, 4, 4, 4, 1 ! Slice}
**.ue[13].macCellId = ${1, 1, 4, 2, 2, 4, 1, 1, 4, 1 ! Slice}
**.ue[13].masterId = ${1, 1, 4, 2, 2, 4, 1, 1, 4, 1 ! Slice}
**.ue[14].macCellId = ${1, 3, 4, 2, 1, 1, 2, 4, 1, 2 ! Slice}
**.ue[14].masterId = ${1, 3, 4, 2, 1, 1, 2, 4, 1, 2 ! Slice}
**.ue[15].macCellId = ${1, 3, 1, 1, 4, 2, 2, 2, 4, 1 ! Slice}
**.ue[15].masterId = ${1, 3, 1, 1, 4, 2, 2, 2, 4, 1 ! Slice}
**.ue[16].macCellId = ${1, 1, 4, 1, 4, 4, 1, 3, 3, 1 ! Slice}
**.ue[16].masterId = ${1, 1, 4, 1, 4, 4, 1, 3, 3, 1 ! Slice}
**.ue[17].macCellId = ${1, 3, 1, 4, 2, 2, 4, 4, 1, 3 ! Slice}
**.ue[17].masterId = ${1, 3, 1, 4, 2, 2, 4, 4, 1, 3 ! Slice}
**.ue[18].macCellId = ${1, 1, 2, 4, 3, 2, 2, 2, 3, 2 ! Slice}
**.ue[18].masterId = ${1, 1, 2, 4, 3, 2, 2, 2, 3, 2 ! Slice}
**.ue[19].macCellId = ${1, 3, 2, 2, 2, 1, 4, 2, 2, 4 ! Slice}
**.ue[19].masterId = ${1, 3, 2, 2, 2, 1, 4, 2, 2, 4 ! Slice}
**.ue[20].macCellId = ${1, 4, 2, 1, 1, 2, 4, 3, 2, 3 ! Slice}
**.ue[20].masterId = ${1, 4, 2, 1, 1, 2, 4, 3, 2, 3 ! Slice}
**.ue[21].macCellId = ${1, 4, 4, 1, 2, 4, 4, 2, 1, 1 ! Slice}
**.ue[21].masterId = ${1, 4, 4, 1, 2, 4, 4, 2, 1, 1 ! Slice}
**.ue[22].macCellId = ${1, 1, 4, 4, 1, 2, 4, 3, 1, 4 ! Slice}
**.ue[22].masterId = ${1, 1, 4, 4, 1, 2, 4, 3, 1, 4 ! Slice}
**.ue[23].macCellId = ${1, 1, 4, 4, 3, 2, 1, 2, 4, 4 ! Slice}
**.ue[23].masterId = ${1, 1, 4, 4, 3, 2, 1, 2, 4, 4 ! Slice}
**.ue[24].macCellId = ${1, 3, 1, 4, 4, 2, 4, 4, 1, 4 ! Slice}
**.ue[24].masterId = ${1, 3, 1, 4, 4, 2, 4, 4, 1, 4 ! Slice}
**.ue[25].macCellId = ${1, 4, 2, 4, 2, 2, 4, 2, 4, 4 ! Slice}
**.ue[25].masterId = ${1, 4, 2, 4, 2, 2, 4, 2, 4, 4 ! Slice}
**.ue[26].macCellId = ${1, 4, 2, 1, 3, 2, 2, 4, 4, 1 ! Slice}
**.ue[26].masterId = ${1, 4, 2, 1, 3, 2, 2, 4, 4, 1 ! Slice}
**.ue[27].macCellId = ${1, 2, 4, 4, 2, 1, 3, 2, 1, 1 ! Slice}
**.ue[27].masterId = ${1, 2, 4, 4, 2, 1, 3, 2, 1, 1 ! Slice}
**.ue[28].macCellId = ${1, 2, 1, 1, 2, 4, 3, 4, 2, 1 ! Slice}
**.ue[28].masterId = ${1, 2, 1, 1, 2, 4, 3, 4, 2, 1 ! Slice}
**.ue[29].macCellId = ${1, 3, 1, 4, 4, 1, 2, 2, 2, 2 ! Slice}
**.ue[29].masterId = ${1, 3, 1, 4, 4, 1, 2, 2, 2, 2 ! Slice}
**.ue[30].macCellId = ${1, 4, 2, 1, 4, 2, 2, 4, 1, 4 ! Slice}
**.ue[30].masterId = ${1, 4, 2, 1, 4, 2, 2, 4, 1, 4 ! Slice}
**.ue[31].macCellId = ${1, 4, 3, 4, 1, 1, 1, 2, 3, 4 ! Slice}
**.ue[31].masterId = ${1, 4, 3, 4, 1, 1, 1, 2, 3, 4 ! Slice}
**.ue[32].macCellId = ${1, 3, 4, 1, 2, 4, 1, 1, 3, 1 ! Slice}
**.ue[32].masterId = ${1, 3, 4, 1, 2, 4, 1, 1, 3, 1 ! Slice}
**.ue[33].macCellId = ${1, 2, 4, 1, 2, 4, 3, 2, 4, 3 ! Slice}
**.ue[33].masterId = ${1, 2, 4, 1, 2, 4, 3, 2, 4, 3 ! Slice}
**.ue[34].macCellId = ${1, 2, 4, 1, 4, 4, 1, 3, 2, 2 ! Slice}
**.ue[34].masterId = ${1, 2, 4, 1, 4, 4, 1, 3, 2, 2 ! Slice}
**.ue[35].macCellId = ${1, 1, 2, 3, 4, 4, 4, 2, 1, 1 ! Slice}
**.ue[35].masterId = ${1, 1, 2, 3, 4, 4, 4, 2, 1, 1 ! Slice}
**.ue[36].macCellId = ${1, 4, 2, 2, 4, 3, 4, 4, 2, 2 ! Slice}
**.ue[36].masterId = ${1, 4, 2, 2, 4, 3, 4, 4, 2, 2 ! Slice}
**.ue[37].macCellId = ${1, 2, 4, 4, 1, 1, 4, 2, 1, 3 ! Slice}
**.ue[37].masterId = ${1, 2, 4, 4, 1, 1, 4, 2, 1, 3 ! Slice}
**.ue[38].macCellId = ${1, 2, 4, 4, 1, 2, 2, 4, 2, 1 ! Slice}
**.ue[38].masterId = ${1, 2, 4, 4, 1, 2, 2, 4, 2, 1 ! Slice}
**.ue[39].macCellId = ${1, 2, 2, 3, 4, 2, 2, 3, 4, 2 ! Slice}
**.ue[39].masterId = ${1, 2, 2, 3, 4, 2, 2, 3, 4, 2 ! Slice}
**.ue[40].macCellId = ${1, 1, 3, 1, 4, 4, 2, 2, 4, 1 ! Slice}
**.ue[40].masterId = ${1, 1, 3, 1, 4, 4, 2, 2, 4, 1 ! Slice}
**.ue[41].macCellId = ${1, 3, 3, 1, 4, 1, 2, 2, 2, 4 ! Slice}
**.ue[41].masterId = ${1, 3, 3, 1, 4, 1, 2, 2, 2, 4 ! Slice}
**.ue[42].macCellId = ${1, 1, 4, 3, 3, 2, 1, 4, 4, 2 ! Slice}
**.ue[42].masterId = ${1, 1, 4, 3, 3, 2, 1, 4, 4, 2 ! Slice}
**.ue[43].macCellId = ${1, 2, 4, 4, 2, 1, 1, 3, 4, 2 ! Slice}
**.ue[43].masterId = ${1, 2, 4, 4, 2, 1, 1, 3, 4, 2 ! Slice}
**.ue[44].macCellId = ${1, 2, 1, 2, 2, 1, 1, 2, 3, 1 ! Slice}
**.ue[44].masterId = ${1, 2, 1, 2, 2, 1, 1, 2, 3, 1 ! Slice}
**.ue[45].macCellId = ${1, 4, 2, 2, 1, 4, 2, 1, 3, 1 ! Slice}
**.ue[45].masterId = ${1, 4, 2, 2, 1, 4, 2, 1, 3, 1 ! Slice}
**.ue[46].macCellId = ${1, 1, 4, 1, 4, 4, 1, 4, 1, 4 ! Slice}
**.ue[46].masterId = ${1, 1, 4, 1, 4, 4, 1, 4, 1, 4 ! Slice}
**.ue[47].macCellId = ${1, 4, 4, 2, 1, 4, 4, 1, 1, 1 ! Slice}
**.ue[47].masterId = ${1, 4, 4, 2, 1, 4, 4, 1, 1, 1 ! Slice}
**.ue[48].macCellId = ${1, 3, 3, 1, 2, 2, 2, 4, 3, 1 ! Slice}
**.ue[48].masterId = ${1, 3, 3, 1, 2, 2, 2, 4, 3, 1 ! Slice}
**.ue[49].macCellId = ${1, 2, 2, 4, 3, 2, 1, 1, 2, 4 ! Slice}
**.ue[49].masterId = ${1, 2, 2, 4, 3, 2, 1, 1, 2, 4 ! Slice}
**.ue[50].macCellId = ${1, 4, 4, 1, 1, 4, 4, 2, 1, 3 ! Slice}
**.ue[50].masterId = ${1, 4, 4, 1, 1, 4, 4, 2, 1, 3 ! Slice}
**.ue[51].macCellId = ${1, 1, 2, 2, 1, 1, 1, 2, 1, 1 ! Slice}
**.ue[51].masterId = ${1, 1, 2, 2, 1, 1, 1, 2, 1, 1 ! Slice}
**.ue[52].macCellId = ${1, 3, 1, 1, 4, 1, 2, 2, 2, 2 ! Slice}
**.ue[52].masterId = ${1, 3, 1, 1, 4, 1, 2, 2, 2, 2 ! Slice}
**.ue[53].macCellId = ${1, 2, 1, 2, 1, 1, 1, 1, 1, 2 ! Slice}
**.ue[53].masterId = ${1, 2, 1, 2, 1, 1, 1, 1, 1, 2 ! Slice}
**.ue[54].macCellId = ${1, 2, 1, 2, 2, 1, 2, 3, 1, 2 ! Slice}
**.ue[54].masterId = ${1, 2, 1, 2, 2, 1, 2, 3, 1, 2 ! Slice}
**.ue[55].macCellId = ${1, 1, 2, 4, 4, 4, 1, 2, 1, 1 ! Slice}
**.ue[55].masterId = ${1, 1, 2, 4, 4, 4, 1, 2, 1, 1 ! Slice}
**.ue[56].macCellId = ${1, 3, 1, 4, 1, 2, 4, 2, 2, 2 ! Slice}
**.ue[56].masterId = ${1, 3, 1, 4, 1, 2, 4, 2, 2, 2 ! Slice}
**.ue[57].macCellId = ${1, 2, 4, 4, 4, 4, 4, 2, 1, 2 ! Slice}
**.ue[57].masterId = ${1, 2, 4, 4, 4, 4, 4, 2, 1, 2 ! Slice}
**.ue[58].macCellId = ${1, 1, 1, 2, 1, 2, 1, 3, 2, 4 ! Slice}
**.ue[58].masterId = ${1, 1, 1, 2, 1, 2, 1, 3, 2, 4 ! Slice}
**.ue[59].macCellId = ${1, 2, 1, 2, 4, 4, 4, 4, 2, 1 ! Slice}
**.ue[59].masterId = ${1, 2, 1, 2, 4, 4, 4, 4, 2, 1 ! Slice}

# Scheduler
**.schedulingDisciplineUl = ${sched= "MAXCI"}
**.schedulingDisciplineDl = ${sched}

############### Scenario ###############

# eNodeBs
**.eNB0.cellularNic.channelModel[*].scenario = "URBAN_MICROCELL"
**.eNB1.cellularNic.channelModel[*].scenario = "URBAN_MICROCELL"
**.eNB2.cellularNic.channelModel[*].scenario = "URBAN_MICROCELL"
**.eNB3.cellularNic.channelModel[*].scenario = "URBAN_MICROCELL"

# UEs
**.ue[0].cellularNic.channelModel[*].scenario = "URBAN_MICROCELL"
**.ue[1].cellularNic.channelModel[*].scenario = "URBAN_MICROCELL"
**.ue[2].cellularNic.channelModel[*].scenario = "URBAN_MICROCELL"
**.ue[3].cellularNic.channelModel[*].scenario = "URBAN_MICROCELL"
**.ue[4].cellularNic.channelModel[*].scenario = "URBAN_MICROCELL"
**.ue[5].cellularNic.channelModel[*].scenario = "URBAN_MICROCELL"
**.ue[6].cellularNic.channelModel[*].scenario = "URBAN_MICROCELL"
**.ue[7].cellularNic.channelModel[*].scenario = "URBAN_MICROCELL"
**.ue[8].cellularNic.channelModel[*].scenario = "URBAN_MICROCELL"
**.ue[9].cellularNic.channelModel[*].scenario = "URBAN_MICROCELL"
**.ue[10].cellularNic.channelModel[*].scenario = "URBAN_MICROCELL"
**.ue[11].cellularNic.channelModel[*].scenario = "URBAN_MICROCELL"
**.ue[12].cellularNic.channelModel[*].scenario = "URBAN_MICROCELL"
**.ue[13].cellularNic.channelModel[*].scenario = "URBAN_MICROCELL"
**.ue[14].cellularNic.channelModel[*].scenario = "URBAN_MICROCELL"
**.ue[15].cellularNic.channelModel[*].scenario = "URBAN_MICROCELL"
**.ue[16].cellularNic.channelModel[*].scenario = "URBAN_MICROCELL"
**.ue[17].cellularNic.channelModel[*].scenario = "URBAN_MICROCELL"
**.ue[18].cellularNic.channelModel[*].scenario = "URBAN_MICROCELL"
**.ue[19].cellularNic.channelModel[*].scenario = "URBAN_MICROCELL"
**.ue[20].cellularNic.channelModel[*].scenario = "URBAN_MICROCELL"
**.ue[21].cellularNic.channelModel[*].scenario = "URBAN_MICROCELL"
**.ue[22].cellularNic.channelModel[*].scenario = "URBAN_MICROCELL"
**.ue[23].cellularNic.channelModel[*].scenario = "URBAN_MICROCELL"
**.ue[24].cellularNic.channelModel[*].scenario = "URBAN_MICROCELL"
**.ue[25].cellularNic.channelModel[*].scenario = "URBAN_MICROCELL"
**.ue[26].cellularNic.channelModel[*].scenario = "URBAN_MICROCELL"
**.ue[27].cellularNic.channelModel[*].scenario = "URBAN_MICROCELL"
**.ue[28].cellularNic.channelModel[*].scenario = "URBAN_MICROCELL"
**.ue[29].cellularNic.channelModel[*].scenario = "URBAN_MICROCELL"
**.ue[30].cellularNic.channelModel[*].scenario = "URBAN_MICROCELL"
**.ue[31].cellularNic.channelModel[*].scenario = "URBAN_MICROCELL"
**.ue[32].cellularNic.channelModel[*].scenario = "URBAN_MICROCELL"
**.ue[33].cellularNic.channelModel[*].scenario = "URBAN_MICROCELL"
**.ue[34].cellularNic.channelModel[*].scenario = "URBAN_MICROCELL"
**.ue[35].cellularNic.channelModel[*].scenario = "URBAN_MICROCELL"
**.ue[36].cellularNic.channelModel[*].scenario = "URBAN_MICROCELL"
**.ue[37].cellularNic.channelModel[*].scenario = "URBAN_MICROCELL"
**.ue[38].cellularNic.channelModel[*].scenario = "URBAN_MICROCELL"
**.ue[39].cellularNic.channelModel[*].scenario = "URBAN_MICROCELL"
**.ue[40].cellularNic.channelModel[*].scenario = "URBAN_MICROCELL"
**.ue[41].cellularNic.channelModel[*].scenario = "URBAN_MICROCELL"
**.ue[42].cellularNic.channelModel[*].scenario = "URBAN_MICROCELL"
**.ue[43].cellularNic.channelModel[*].scenario = "URBAN_MICROCELL"
**.ue[44].cellularNic.channelModel[*].scenario = "URBAN_MICROCELL"
**.ue[45].cellularNic.channelModel[*].scenario = "URBAN_MICROCELL"
**.ue[46].cellularNic.channelModel[*].scenario = "URBAN_MICROCELL"
**.ue[47].cellularNic.channelModel[*].scenario = "URBAN_MICROCELL"
**.ue[48].cellularNic.channelModel[*].scenario = "URBAN_MICROCELL"
**.ue[49].cellularNic.channelModel[*].scenario = "URBAN_MICROCELL"
**.ue[50].cellularNic.channelModel[*].scenario = "URBAN_MICROCELL"
**.ue[51].cellularNic.channelModel[*].scenario = "URBAN_MICROCELL"
**.ue[52].cellularNic.channelModel[*].scenario = "URBAN_MICROCELL"
**.ue[53].cellularNic.channelModel[*].scenario = "URBAN_MICROCELL"
**.ue[54].cellularNic.channelModel[*].scenario = "URBAN_MICROCELL"
**.ue[55].cellularNic.channelModel[*].scenario = "URBAN_MICROCELL"
**.ue[56].cellularNic.channelModel[*].scenario = "URBAN_MICROCELL"
**.ue[57].cellularNic.channelModel[*].scenario = "URBAN_MICROCELL"
**.ue[58].cellularNic.channelModel[*].scenario = "URBAN_MICROCELL"
**.ue[59].cellularNic.channelModel[*].scenario = "URBAN_MICROCELL"

############### Mobility ###############

# eNodeB
*.eNB0.mobility.initialX = 1400.0m
*.eNB0.mobility.initialY = 1400.0m
*.eNB0.mobility.initialZ = 0m
*.eNB0.mobility.initFromDisplayString = false
*.eNB1.mobility.initialX = 3000.0m
*.eNB1.mobility.initialY = 1400.0m
*.eNB1.mobility.initialZ = 0m
*.eNB1.mobility.initFromDisplayString = false
*.eNB2.mobility.initialX = 200.0m
*.eNB2.mobility.initialY = 2200.0m
*.eNB2.mobility.initialZ = 0m
*.eNB2.mobility.initFromDisplayString = false
*.eNB3.mobility.initialX = 1800.0m
*.eNB3.mobility.initialY = 2600.0m
*.eNB3.mobility.initialZ = 0m
*.eNB3.mobility.initFromDisplayString = false
*.eNB*.mobility.constraintAreaMaxX = 4000 m
*.eNB*.mobility.constraintAreaMaxY = 4000 m
*.eNB*.mobility.constraintAreaMaxZ = inf m
*.eNB*.mobility.constraintAreaMinX = 0 m
*.eNB*.mobility.constraintAreaMinY = 0 m
*.eNB*.mobility.constraintAreaMinZ = -inf m

# UEs

*.ue[*].mobilityType = "LinearMobility"
*.ue[0].mobility.initialX = ${1109.6653287341658m, 3232.37m, 3092.34m, 1470.63m, 1713.88m, 2819.1m, 703.774m, 2669.49m, 2817.66m, 1050.88m ! Slice}
*.ue[0].mobility.initialY = ${732.2622129485436m, 1476.59m, 2226.6m, 3091.62m, 3279.86m, 1803.04m, 519.95m, 1202.14m, 2317.89m, 3310.87m ! Slice}
*.ue[0].mobility.initialZ = ${0m, 0.0m, 0.0m, 0.0m, 0.0m, 0.0m, 0.0m, 0.0m, 0.0m, 0.0m ! Slice}
*.ue[0].mobility.initFromDisplayString = false
*.ue[1].mobility.initialX = ${1072.0076832059747m, 24.5798m, 1320.45m, 2885.39m, 3932.35m, 3289.46m, 2463.05m, 1337.29m, 110.643m, 639.593m ! Slice}
*.ue[1].mobility.initialY = ${603.9176472843592m, 3640.93m, 765.824m, 3636.02m, 1546.18m, 862.783m, 2896.71m, 1811.04m, 1744.69m, 3489.53m ! Slice}
*.ue[1].mobility.initialZ = ${0m, 0.0m, 0.0m, 0.0m, 0.0m, 0.0m, 0.0m, 0.0m, 0.0m, 0.0m ! Slice}
*.ue[1].mobility.initFromDisplayString = false
*.ue[2].mobility.initialX = ${1088.7115391726159m, 2696.78m, 3089.93m, 651.935m, 2061.53m, 2546.78m, 236.535m, 1440.22m, 2264.08m, 157.088m ! Slice}
*.ue[2].mobility.initialY = ${776.115203211823m, 2968.71m, 3517.97m, 2039.0m, 417.927m, 1549.0m, 3132.75m, 3695.34m, 1492.11m, 98.0436m ! Slice}
*.ue[2].mobility.initialZ = ${0m, 0.0m, 0.0m, 0.0m, 0.0m, 0.0m, 0.0m, 0.0m, 0.0m, 0.0m ! Slice}
*.ue[2].mobility.initFromDisplayString = false
*.ue[3].mobility.initialX = ${1058.6735847528396m, 208.883m, 1702.56m, 2944.24m, 2093.42m, 613.082m, 342.952m, 1292.91m, 3218.93m, 3666.01m ! Slice}
*.ue[3].mobility.initialY = ${508.07431010701595m, 944.527m, 3845.31m, 1305.75m, 2565.19m, 2828.66m, 1707.93m, 51.2614m, 3010.7m, 3267.08m ! Slice}
*.ue[3].mobility.initialZ = ${0m, 0.0m, 0.0m, 0.0m, 0.0m, 0.0m, 0.0m, 0.0m, 0.0m, 0.0m ! Slice}
*.ue[3].mobility.initFromDisplayString = false
*.ue[4].mobility.initialX = ${1594.262972045097m, 1708.45m, 1905.4m, 2276.18m, 2551.58m, 2774.61m, 3095.16m, 3256.06m, 3502.33m, 3585.32m ! Slice}
*.ue[4].mobility.initialY = ${696.6295843852519m, 2253.7m, 2746.0m, 2551.83m, 1954.37m, 1170.33m, 2254.71m, 642.516m, 2805.46m, 3847.32m ! Slice}
*.ue[4].mobility.initialZ = ${0m, 0.0m, 0.0m, 0.0m, 0.0m, 0.0m, 0.0m, 0.0m, 0.0m, 0.0m ! Slice}
*.ue[4].mobility.initFromDisplayString = false
*.ue[5].mobility.initialX = ${1479.2344573713867m, 1161.92m, 2745.28m, 2916.59m, 240.741m, 2481.52m, 3284.45m, 1530.68m, 2091.75m, 3429.53m ! Slice}
*.ue[5].mobility.initialY = ${788.432556426326m, 2809.28m, 3378.26m, 1742.07m, 1060.03m, 3094.48m, 3061.13m, 1469.41m, 1681.97m, 2804.58m ! Slice}
*.ue[5].mobility.initialZ = ${0m, 0.0m, 0.0m, 0.0m, 0.0m, 0.0m, 0.0m, 0.0m, 0.0m, 0.0m ! Slice}
*.ue[5].mobility.initFromDisplayString = false
*.ue[6].mobility.initialX = ${1343.0958361486903m, 1426.39m, 3144.5m, 2462.18m, 914.625m, 470.687m, 1900.52m, 2735.13m, 2787.83m, 947.765m ! Slice}
*.ue[6].mobility.initialY = ${496.70657620633943m, 1422.04m, 2768.07m, 3368.85m, 2364.89m, 1466.69m, 316.845m, 330.092m, 1919.25m, 3214.01m ! Slice}
*.ue[6].mobility.initialZ = ${0m, 0.0m, 0.0m, 0.0m, 0.0m, 0.0m, 0.0m, 0.0m, 0.0m, 0.0m ! Slice}
*.ue[6].mobility.initFromDisplayString = false
*.ue[7].mobility.initialX = ${1322.1464498557593m, 2668.27m, 3416.04m, 2202.57m, 1183.55m, 402.107m, 2279.35m, 3947.38m, 2226.82m, 612.061m ! Slice}
*.ue[7].mobility.initialY = ${788.5578800863273m, 1672.62m, 3165.76m, 1130.55m, 790.616m, 2954.8m, 1300.49m, 1791.14m, 3056.44m, 719.497m ! Slice}
*.ue[7].mobility.initialZ = ${0m, 0.0m, 0.0m, 0.0m, 0.0m, 0.0m, 0.0m, 0.0m, 0.0m, 0.0m ! Slice}
*.ue[7].mobility.initFromDisplayString = false
*.ue[8].mobility.initialX = ${1357.0210147027271m, 2860.47m, 1432.33m, 3859.01m, 1521.54m, 713.678m, 2901.64m, 2491.3m, 1062.52m, 2383.46m ! Slice}
*.ue[8].mobility.initialY = ${779.675512124268m, 522.435m, 189.144m, 103.918m, 257.652m, 413.845m, 607.33m, 800.025m, 1056.15m, 1198.81m ! Slice}
*.ue[8].mobility.initialZ = ${0m, 0.0m, 0.0m, 0.0m, 0.0m, 0.0m, 0.0m, 0.0m, 0.0m, 0.0m ! Slice}
*.ue[8].mobility.initFromDisplayString = false
*.ue[9].mobility.initialX = ${1478.8260949910182m, 3515.16m, 978.307m, 3436.7m, 2951.7m, 1916.12m, 3486.06m, 1259.35m, 2035.14m, 3567.8m ! Slice}
*.ue[9].mobility.initialY = ${548.4324847984453m, 271.88m, 245.545m, 785.701m, 1015.85m, 1606.12m, 1897.11m, 2330.21m, 2759.61m, 2994.68m ! Slice}
*.ue[9].mobility.initialZ = ${0m, 0.0m, 0.0m, 0.0m, 0.0m, 0.0m, 0.0m, 0.0m, 0.0m, 0.0m ! Slice}
*.ue[9].mobility.initFromDisplayString = false
*.ue[10].mobility.initialX = ${1288.9116070790226m, 813.575m, 2057.39m, 3753.37m, 2165.73m, 1149.76m, 232.753m, 987.747m, 2675.59m, 3444.01m ! Slice}
*.ue[10].mobility.initialY = ${734.9080389388654m, 2767.87m, 291.702m, 3242.57m, 372.318m, 1698.88m, 3607.15m, 1867.87m, 1998.55m, 2499.09m ! Slice}
*.ue[10].mobility.initialZ = ${0m, 0.0m, 0.0m, 0.0m, 0.0m, 0.0m, 0.0m, 0.0m, 0.0m, 0.0m ! Slice}
*.ue[10].mobility.initFromDisplayString = false
*.ue[11].mobility.initialX = ${840.3167935084422m, 883.611m, 3311.75m, 3352.4m, 1395.29m, 878.493m, 2859.28m, 3859.11m, 1881.07m, 962.423m ! Slice}
*.ue[11].mobility.initialY = ${876.0542923713866m, 802.26m, 3135.21m, 3534.26m, 1683.5m, 580.284m, 2426.79m, 3392.72m, 2329.86m, 3.83464m ! Slice}
*.ue[11].mobility.initialZ = ${0m, 0.0m, 0.0m, 0.0m, 0.0m, 0.0m, 0.0m, 0.0m, 0.0m, 0.0m ! Slice}
*.ue[11].mobility.initFromDisplayString = false
*.ue[12].mobility.initialX = ${1379.4269996378446m, 2638.73m, 2060.55m, 372.559m, 3433.0m, 2386.59m, 1386.3m, 2605.41m, 3072.3m, 974.77m ! Slice}
*.ue[12].mobility.initialY = ${966.9624497930654m, 74.9578m, 2090.03m, 3458.71m, 1790.2m, 330.566m, 2093.38m, 3234.78m, 3565.49m, 1679.04m ! Slice}
*.ue[12].mobility.initialZ = ${0m, 0.0m, 0.0m, 0.0m, 0.0m, 0.0m, 0.0m, 0.0m, 0.0m, 0.0m ! Slice}
*.ue[12].mobility.initFromDisplayString = false
*.ue[13].mobility.initialX = ${1375.716692367016m, 989.002m, 1500.53m, 3435.81m, 2946.17m, 1743.97m, 654.32m, 1965.07m, 2940.37m, 1025.96m ! Slice}
*.ue[13].mobility.initialY = ${1063.2462105862965m, 1592.42m, 2790.07m, 352.679m, 1777.54m, 3506.49m, 1590.29m, 853.591m, 3697.31m, 563.827m ! Slice}
*.ue[13].mobility.initialZ = ${0m, 0.0m, 0.0m, 0.0m, 0.0m, 0.0m, 0.0m, 0.0m, 0.0m, 0.0m ! Slice}
*.ue[13].mobility.initFromDisplayString = false
*.ue[14].mobility.initialX = ${1380.7306145108798m, 762.308m, 3156.65m, 3866.89m, 1603.8m, 768.07m, 2918.86m, 1608.95m, 1481.83m, 3407.69m ! Slice}
*.ue[14].mobility.initialY = ${970.9513594619028m, 2282.19m, 3842.15m, 3343.29m, 1578.67m, 90.0815m, 1609.77m, 3931.22m, 1982.35m, 427.961m ! Slice}
*.ue[14].mobility.initialZ = ${0m, 0.0m, 0.0m, 0.0m, 0.0m, 0.0m, 0.0m, 0.0m, 0.0m, 0.0m ! Slice}
*.ue[14].mobility.initFromDisplayString = false
*.ue[15].mobility.initialX = ${1352.2292059364881m, 364.582m, 822.271m, 1427.87m, 1994.93m, 2970.84m, 3591.52m, 3477.08m, 3042.99m, 2318.26m ! Slice}
*.ue[15].mobility.initialY = ${975.6187797872886m, 3978.0m, 568.985m, 1471.42m, 3150.76m, 1746.91m, 2238.59m, 2835.69m, 3623.47m, 1641.56m ! Slice}
*.ue[15].mobility.initialZ = ${0m, 0.0m, 0.0m, 0.0m, 0.0m, 0.0m, 0.0m, 0.0m, 0.0m, 0.0m ! Slice}
*.ue[15].mobility.initFromDisplayString = false
*.ue[16].mobility.initialX = ${1340.6445961702375m, 1262.03m, 1183.86m, 1097.81m, 984.598m, 914.041m, 806.659m, 747.136m, 659.615m, 575.192m ! Slice}
*.ue[16].mobility.initialY = ${1081.217745143212m, 1741.9m, 3882.41m, 1029.03m, 2872.94m, 2757.5m, 1168.77m, 2598.84m, 2254.44m, 739.58m ! Slice}
*.ue[16].mobility.initialZ = ${0m, 0.0m, 0.0m, 0.0m, 0.0m, 0.0m, 0.0m, 0.0m, 0.0m, 0.0m ! Slice}
*.ue[16].mobility.initFromDisplayString = false
*.ue[17].mobility.initialX = ${1403.4273894489852m, 552.972m, 899.347m, 1950.73m, 2998.67m, 3954.44m, 3121.03m, 2208.1m, 1174.76m, 41.1214m ! Slice}
*.ue[17].mobility.initialY = ${980.0627281044352m, 3445.57m, 553.825m, 2744.34m, 2063.42m, 904.027m, 3193.02m, 2052.43m, 1214.54m, 3878.19m ! Slice}
*.ue[17].mobility.initialZ = ${0m, 0.0m, 0.0m, 0.0m, 0.0m, 0.0m, 0.0m, 0.0m, 0.0m, 0.0m ! Slice}
*.ue[17].mobility.initFromDisplayString = false
*.ue[18].mobility.initialX = ${1397.6497203680108m, 939.922m, 2617.4m, 1807.6m, 707.08m, 2416.2m, 3901.4m, 2430.06m, 793.473m, 3938.41m ! Slice}
*.ue[18].mobility.initialY = ${995.0011210099333m, 680.254m, 1885.04m, 3325.94m, 2761.16m, 606.471m, 619.713m, 1741.41m, 3729.39m, 1677.77m ! Slice}
*.ue[18].mobility.initialZ = ${0m, 0.0m, 0.0m, 0.0m, 0.0m, 0.0m, 0.0m, 0.0m, 0.0m, 0.0m ! Slice}
*.ue[18].mobility.initFromDisplayString = false
*.ue[19].mobility.initialX = ${1309.3540141816181m, 593.486m, 2469.63m, 3593.59m, 2747.97m, 954.239m, 952.49m, 2942.12m, 3716.24m, 2388.35m ! Slice}
*.ue[19].mobility.initialY = ${1053.4316254945716m, 3805.32m, 287.41m, 2438.96m, 2229.73m, 1484.35m, 3077.48m, 1158.62m, 2753.0m, 2175.04m ! Slice}
*.ue[19].mobility.initialZ = ${0m, 0.0m, 0.0m, 0.0m, 0.0m, 0.0m, 0.0m, 0.0m, 0.0m, 0.0m ! Slice}
*.ue[19].mobility.initFromDisplayString = false
*.ue[20].mobility.initialX = ${1372.4644951707467m, 1869.13m, 3886.8m, 2334.33m, 971.158m, 2591.24m, 2273.41m, 516.831m, 2675.56m, 1182.02m ! Slice}
*.ue[20].mobility.initialY = ${1034.8646502471852m, 3171.85m, 3059.14m, 1896.09m, 173.336m, 1651.43m, 3734.71m, 2815.4m, 573.288m, 2371.86m ! Slice}
*.ue[20].mobility.initialZ = ${0m, 0.0m, 0.0m, 0.0m, 0.0m, 0.0m, 0.0m, 0.0m, 0.0m, 0.0m ! Slice}
*.ue[20].mobility.initFromDisplayString = false
*.ue[21].mobility.initialX = ${1332.052285165753m, 3035.4m, 2455.78m, 894.968m, 2969.71m, 1798.28m, 1144.52m, 3865.81m, 845.712m, 777.568m ! Slice}
*.ue[21].mobility.initialY = ${1070.793707323845m, 3617.2m, 2735.93m, 873.445m, 845.33m, 2618.9m, 3423.32m, 1767.12m, 589.865m, 1218.77m ! Slice}
*.ue[21].mobility.initialZ = ${0m, 0.0m, 0.0m, 0.0m, 0.0m, 0.0m, 0.0m, 0.0m, 0.0m, 0.0m ! Slice}
*.ue[21].mobility.initFromDisplayString = false
*.ue[22].mobility.initialX = ${1337.3363080837175m, 2075.53m, 2933.94m, 1621.22m, 683.885m, 2570.03m, 2342.01m, 501.543m, 2066.76m, 2188.46m ! Slice}
*.ue[22].mobility.initialY = ${1007.3576104087737m, 1958.73m, 3315.92m, 2225.34m, 456.961m, 1513.64m, 3959.82m, 2209.69m, 5.49255m, 3033.76m ! Slice}
*.ue[22].mobility.initialZ = ${0m, 0.0m, 0.0m, 0.0m, 0.0m, 0.0m, 0.0m, 0.0m, 0.0m, 0.0m ! Slice}
*.ue[22].mobility.initFromDisplayString = false
*.ue[23].mobility.initialX = ${1321.531933201027m, 2228.9m, 1986.75m, 1355.18m, 701.882m, 2956.01m, 605.414m, 3395.59m, 1622.78m, 824.876m ! Slice}
*.ue[23].mobility.initialY = ${1016.4368234267803m, 1427.62m, 2991.14m, 3428.71m, 3647.68m, 2617.65m, 677.546m, 1273.18m, 2534.17m, 3541.32m ! Slice}
*.ue[23].mobility.initialZ = ${0m, 0.0m, 0.0m, 0.0m, 0.0m, 0.0m, 0.0m, 0.0m, 0.0m, 0.0m ! Slice}
*.ue[23].mobility.initFromDisplayString = false
*.ue[24].mobility.initialX = ${1361.7064619346102m, 529.932m, 987.061m, 2453.15m, 3333.05m, 3259.25m, 2221.63m, 1218.01m, 15.7502m, 1649.36m ! Slice}
*.ue[24].mobility.initialY = ${997.3514167249652m, 3014.86m, 1365.65m, 2481.97m, 3341.12m, 485.375m, 2347.8m, 2967.91m, 333.577m, 3494.77m ! Slice}
*.ue[24].mobility.initialZ = ${0m, 0.0m, 0.0m, 0.0m, 0.0m, 0.0m, 0.0m, 0.0m, 0.0m, 0.0m ! Slice}
*.ue[24].mobility.initFromDisplayString = false
*.ue[25].mobility.initialX = ${1329.998536936534m, 1856.49m, 2532.11m, 3229.69m, 3773.86m, 3755.22m, 3308.42m, 2750.86m, 2086.49m, 1596.6m ! Slice}
*.ue[25].mobility.initialY = ${1038.198832157463m, 3982.56m, 159.46m, 3787.9m, 1132.84m, 1502.59m, 3939.72m, 784.684m, 3067.68m, 2124.5m ! Slice}
*.ue[25].mobility.initialZ = ${0m, 0.0m, 0.0m, 0.0m, 0.0m, 0.0m, 0.0m, 0.0m, 0.0m, 0.0m ! Slice}
*.ue[25].mobility.initFromDisplayString = false
*.ue[26].mobility.initialX = ${1306.3936203218705m, 3089.18m, 2957.32m, 1238.36m, 638.555m, 2644.67m, 3399.94m, 2750.52m, 1376.06m, 514.801m ! Slice}
*.ue[26].mobility.initialY = ${1063.5726331464818m, 3778.32m, 1464.03m, 1608.83m, 3908.47m, 716.496m, 507.468m, 3085.1m, 2530.98m, 152.931m ! Slice}
*.ue[26].mobility.initialZ = ${0m, 0.0m, 0.0m, 0.0m, 0.0m, 0.0m, 0.0m, 0.0m, 0.0m, 0.0m ! Slice}
*.ue[26].mobility.initFromDisplayString = false
*.ue[27].mobility.initialX = ${1372.1651619478168m, 3788.73m, 1533.72m, 1338.19m, 3022.85m, 1111.1m, 1.96798m, 2869.03m, 2313.34m, 1128.87m ! Slice}