#Function: ilp_fixed_info
#Parameters: 
#  filename = '../Network_CCOpMv/_5G/simulations/ilp_fixed_users.ini'
#  seed = 123
#  Map height distance = 8000
#  Map width distance = 8000
#  Region side distance = 800
[General]
sim-time-limit = 10s

############### Statistics ###############
output-scalar-file = ${resultdir}/${configname}/${repetition}.sca
output-vector-file = ${resultdir}/${configname}/${repetition}.vec
**.vector-recording = false
seed-set = ${repetition}

[Config ilp_fixed_info]
network = _5G.networks.SimpleNet
sim-time-limit = 10s
repeat = 1
seed-set = ${repetition}
num-rngs = 2
seed-1-mt = 123

output-scalar-file = ${resultdir}/${configname}/${repetition}.sca
output-vector-file = ${resultdir}/${configname}/${repetition}.vec
**.vector-recording = false

############### Transmission Power ###############
**.ueTxPower = 24
**.eNodeBTxPower = 46
**.microTxPower = 30
*.eNB.cellularNic.phy.txDirection = "OMNI"

############### Channel Control ###############
*.carrierAggregation.componentCarrier[*].carrierFrequency = 0.7GHz

############### Channel Model ###############
**.cellularNic.channelModel[*].building_height = 20
**.cellularNic.channelModel[*].nodeb_height = 25
**.cellularNic.channelModel[*].ue_height = 1.5
**.cellularNic.channelModel[*].street_wide = 20
**.cellularNic.channelModel[*].fading_type = "JAKES"
**.cellularNic.channelModel[*].extCell_interference = true
**.cellularNic.channelModel[*].antennGainEnB = 18
**.cellularNic.channelModel[*].antennGainMicro = 5
**.cellularNic.channelModel[*].antennaGainUe = 0
**.cellularNic.channelModel[*].bs_noise_figure = 5
**.cellularNic.channelModel[*].cable_loss = 2
**.cellularNic.channelModel[*].componentCarrierIndex = 0
**.cellularNic.channelModel[*].correlation_distance = 50
**.cellularNic.channelModel[*].d2d_interference = true
**.cellularNic.channelModel[*].delay_rms = 363e-9
**.cellularNic.channelModel[*].downlink_interference = false 
**.cellularNic.channelModel[*].dynamic_los = false
**.cellularNic.channelModel[*].enable_extCell_los = true
**.cellularNic.channelModel[*].fading = true
**.cellularNic.channelModel[*].fading_paths = 6
**.cellularNic.channelModel[*].fixed_los = false
**.cellularNic.channelModel[*].harqReduction = 0.2
**.cellularNic.channelModel[*].inside_building = false
**.cellularNic.channelModel[*].lambdaMaxTh = 0.2
**.cellularNic.channelModel[*].lambdaMinTh = 0.02
**.cellularNic.channelModel[*].lambdaRatioTh = 20
**.cellularNic.channelModel[*].rsrqScale = 1.0
**.cellularNic.channelModel[*].rsrqShift = 22
**.cellularNic.channelModel[*].shadowing = true
**.cellularNic.channelModel[*].targetBler = 0.01
**.cellularNic.channelModel[*].thermalNoise = -104.5
**.cellularNic.channelModel[*].tolerateMaxDistViolation = false
**.cellularNic.channelModel[*].ue_noise_figure = 7
**.cellularNic.channelModel[*].uplink_interference = false
**.cellularNic.channelModel[*].useRsrqFromLog = false
**.cellularNic.channelModel[*].useTorus = false

############### Resource Blocks ###############
**.numBands = 6

############### UEs ###############
**.numUe = 300

# Conecting UEs to eNodeB
**.ue[0].macCellId = 1
**.ue[0].masterId = 1
**.ue[1].macCellId = 1
**.ue[1].masterId = 1
**.ue[2].macCellId = 1
**.ue[2].masterId = 1
**.ue[3].macCellId = 1
**.ue[3].masterId = 1
**.ue[4].macCellId = 1
**.ue[4].masterId = 1
**.ue[5].macCellId = 1
**.ue[5].masterId = 1
**.ue[6].macCellId = 1
**.ue[6].masterId = 1
**.ue[7].macCellId = 1
**.ue[7].masterId = 1
**.ue[8].macCellId = 1
**.ue[8].masterId = 1
**.ue[9].macCellId = 1
**.ue[9].masterId = 1
**.ue[10].macCellId = 1
**.ue[10].masterId = 1
**.ue[11].macCellId = 1
**.ue[11].masterId = 1
**.ue[12].macCellId = 1
**.ue[12].masterId = 1
**.ue[13].macCellId = 1
**.ue[13].masterId = 1
**.ue[14].macCellId = 1
**.ue[14].masterId = 1
**.ue[15].macCellId = 1
**.ue[15].masterId = 1
**.ue[16].macCellId = 1
**.ue[16].masterId = 1
**.ue[17].macCellId = 1
**.ue[17].masterId = 1
**.ue[18].macCellId = 1
**.ue[18].masterId = 1
**.ue[19].macCellId = 1
**.ue[19].masterId = 1
**.ue[20].macCellId = 1
**.ue[20].masterId = 1
**.ue[21].macCellId = 1
**.ue[21].masterId = 1
**.ue[22].macCellId = 1
**.ue[22].masterId = 1
**.ue[23].macCellId = 1
**.ue[23].masterId = 1
**.ue[24].macCellId = 1
**.ue[24].masterId = 1
**.ue[25].macCellId = 1
**.ue[25].masterId = 1
**.ue[26].macCellId = 1
**.ue[26].masterId = 1
**.ue[27].macCellId = 1
**.ue[27].masterId = 1
**.ue[28].macCellId = 1
**.ue[28].masterId = 1
**.ue[29].macCellId = 1
**.ue[29].masterId = 1
**.ue[30].macCellId = 1
**.ue[30].masterId = 1
**.ue[31].macCellId = 1
**.ue[31].masterId = 1
**.ue[32].macCellId = 1
**.ue[32].masterId = 1
**.ue[33].macCellId = 1
**.ue[33].masterId = 1
**.ue[34].macCellId = 1
**.ue[34].masterId = 1
**.ue[35].macCellId = 1
**.ue[35].masterId = 1
**.ue[36].macCellId = 1
**.ue[36].masterId = 1
**.ue[37].macCellId = 1
**.ue[37].masterId = 1
**.ue[38].macCellId = 1
**.ue[38].masterId = 1
**.ue[39].macCellId = 1
**.ue[39].masterId = 1
**.ue[40].macCellId = 1
**.ue[40].masterId = 1
**.ue[41].macCellId = 1
**.ue[41].masterId = 1
**.ue[42].macCellId = 1
**.ue[42].masterId = 1
**.ue[43].macCellId = 1
**.ue[43].masterId = 1
**.ue[44].macCellId = 1
**.ue[44].masterId = 1
**.ue[45].macCellId = 1
**.ue[45].masterId = 1
**.ue[46].macCellId = 1
**.ue[46].masterId = 1
**.ue[47].macCellId = 1
**.ue[47].masterId = 1
**.ue[48].macCellId = 1
**.ue[48].masterId = 1
**.ue[49].macCellId = 1
**.ue[49].masterId = 1
**.ue[50].macCellId = 1
**.ue[50].masterId = 1
**.ue[51].macCellId = 1
**.ue[51].masterId = 1
**.ue[52].macCellId = 1
**.ue[52].masterId = 1
**.ue[53].macCellId = 1
**.ue[53].masterId = 1
**.ue[54].macCellId = 1
**.ue[54].masterId = 1
**.ue[55].macCellId = 1
**.ue[55].masterId = 1
**.ue[56].macCellId = 1
**.ue[56].masterId = 1
**.ue[57].macCellId = 1
**.ue[57].masterId = 1
**.ue[58].macCellId = 1
**.ue[58].masterId = 1
**.ue[59].macCellId = 1
**.ue[59].masterId = 1
**.ue[60].macCellId = 1
**.ue[60].masterId = 1
**.ue[61].macCellId = 1
**.ue[61].masterId = 1
**.ue[62].macCellId = 1
**.ue[62].masterId = 1
**.ue[63].macCellId = 1
**.ue[63].masterId = 1
**.ue[64].macCellId = 1
**.ue[64].masterId = 1
**.ue[65].macCellId = 1
**.ue[65].masterId = 1
**.ue[66].macCellId = 1
**.ue[66].masterId = 1
**.ue[67].macCellId = 1
**.ue[67].masterId = 1
**.ue[68].macCellId = 1
**.ue[68].masterId = 1
**.ue[69].macCellId = 1
**.ue[69].masterId = 1
**.ue[70].macCellId = 1
**.ue[70].masterId = 1
**.ue[71].macCellId = 1
**.ue[71].masterId = 1
**.ue[72].macCellId = 1
**.ue[72].masterId = 1
**.ue[73].macCellId = 1
**.ue[73].masterId = 1
**.ue[74].macCellId = 1
**.ue[74].masterId = 1
**.ue[75].macCellId = 1
**.ue[75].masterId = 1
**.ue[76].macCellId = 1
**.ue[76].masterId = 1
**.ue[77].macCellId = 1
**.ue[77].masterId = 1
**.ue[78].macCellId = 1
**.ue[78].masterId = 1
**.ue[79].macCellId = 1
**.ue[79].masterId = 1
**.ue[80].macCellId = 1
**.ue[80].masterId = 1
**.ue[81].macCellId = 1
**.ue[81].masterId = 1
**.ue[82].macCellId = 1
**.ue[82].masterId = 1
**.ue[83].macCellId = 1
**.ue[83].masterId = 1
**.ue[84].macCellId = 1
**.ue[84].masterId = 1
**.ue[85].macCellId = 1
**.ue[85].masterId = 1
**.ue[86].macCellId = 1
**.ue[86].masterId = 1
**.ue[87].macCellId = 1
**.ue[87].masterId = 1
**.ue[88].macCellId = 1
**.ue[88].masterId = 1
**.ue[89].macCellId = 1
**.ue[89].masterId = 1
**.ue[90].macCellId = 1
**.ue[90].masterId = 1
**.ue[91].macCellId = 1
**.ue[91].masterId = 1
**.ue[92].macCellId = 1
**.ue[92].masterId = 1
**.ue[93].macCellId = 1
**.ue[93].masterId = 1
**.ue[94].macCellId = 1
**.ue[94].masterId = 1
**.ue[95].macCellId = 1
**.ue[95].masterId = 1
**.ue[96].macCellId = 1
**.ue[96].masterId = 1
**.ue[97].macCellId = 1
**.ue[97].masterId = 1
**.ue[98].macCellId = 1
**.ue[98].masterId = 1
**.ue[99].macCellId = 1
**.ue[99].masterId = 1
**.ue[100].macCellId = 1
**.ue[100].masterId = 1
**.ue[101].macCellId = 1
**.ue[101].masterId = 1
**.ue[102].macCellId = 1
**.ue[102].masterId = 1
**.ue[103].macCellId = 1
**.ue[103].masterId = 1
**.ue[104].macCellId = 1
**.ue[104].masterId = 1
**.ue[105].macCellId = 1
**.ue[105].masterId = 1
**.ue[106].macCellId = 1
**.ue[106].masterId = 1
**.ue[107].macCellId = 1
**.ue[107].masterId = 1
**.ue[108].macCellId = 1
**.ue[108].masterId = 1
**.ue[109].macCellId = 1
**.ue[109].masterId = 1
**.ue[110].macCellId = 1
**.ue[110].masterId = 1
**.ue[111].macCellId = 1
**.ue[111].masterId = 1
**.ue[112].macCellId = 1
**.ue[112].masterId = 1
**.ue[113].macCellId = 1
**.ue[113].masterId = 1
**.ue[114].macCellId = 1
**.ue[114].masterId = 1
**.ue[115].macCellId = 1
**.ue[115].masterId = 1
**.ue[116].macCellId = 1
**.ue[116].masterId = 1
**.ue[117].macCellId = 1
**.ue[117].masterId = 1
**.ue[118].macCellId = 1
**.ue[118].masterId = 1
**.ue[119].macCellId = 1
**.ue[119].masterId = 1
**.ue[120].macCellId = 1
**.ue[120].masterId = 1
**.ue[121].macCellId = 1
**.ue[121].masterId = 1
**.ue[122].macCellId = 1
**.ue[122].masterId = 1
**.ue[123].macCellId = 1
**.ue[123].masterId = 1
**.ue[124].macCellId = 1
**.ue[124].masterId = 1
**.ue[125].macCellId = 1
**.ue[125].masterId = 1
**.ue[126].macCellId = 1
**.ue[126].masterId = 1
**.ue[127].macCellId = 1
**.ue[127].masterId = 1
**.ue[128].macCellId = 1
**.ue[128].masterId = 1
**.ue[129].macCellId = 1
**.ue[129].masterId = 1
**.ue[130].macCellId = 1
**.ue[130].masterId = 1
**.ue[131].macCellId = 1
**.ue[131].masterId = 1
**.ue[132].macCellId = 1
**.ue[132].masterId = 1
**.ue[133].macCellId = 1
**.ue[133].masterId = 1
**.ue[134].macCellId = 1
**.ue[134].masterId = 1
**.ue[135].macCellId = 1
**.ue[135].masterId = 1
**.ue[136].macCellId = 1
**.ue[136].masterId = 1
**.ue[137].macCellId = 1
**.ue[137].masterId = 1
**.ue[138].macCellId = 1
**.ue[138].masterId = 1
**.ue[139].macCellId = 1
**.ue[139].masterId = 1
**.ue[140].macCellId = 1
**.ue[140].masterId = 1
**.ue[141].macCellId = 1
**.ue[141].masterId = 1
**.ue[142].macCellId = 1
**.ue[142].masterId = 1
**.ue[143].macCellId = 1
**.ue[143].masterId = 1
**.ue[144].macCellId = 1
**.ue[144].masterId = 1
**.ue[145].macCellId = 1
**.ue[145].masterId = 1
**.ue[146].macCellId = 1
**.ue[146].masterId = 1
**.ue[147].macCellId = 1
**.ue[147].masterId = 1
**.ue[148].macCellId = 1
**.ue[148].masterId = 1
**.ue[149].macCellId = 1
**.ue[149].masterId = 1
**.ue[150].macCellId = 1
**.ue[150].masterId = 1
**.ue[151].macCellId = 1
**.ue[151].masterId = 1
**.ue[152].macCellId = 1
**.ue[152].masterId = 1
**.ue[153].macCellId = 1
**.ue[153].masterId = 1
**.ue[154].macCellId = 1
**.ue[154].masterId = 1
**.ue[155].macCellId = 1
**.ue[155].masterId = 1
**.ue[156].macCellId = 1
**.ue[156].masterId = 1
**.ue[157].macCellId = 1
**.ue[157].masterId = 1
**.ue[158].macCellId = 1
**.ue[158].masterId = 1
**.ue[159].macCellId = 1
**.ue[159].masterId = 1
**.ue[160].macCellId = 1
**.ue[160].masterId = 1
**.ue[161].macCellId = 1
**.ue[161].masterId = 1
**.ue[162].macCellId = 1
**.ue[162].masterId = 1
**.ue[163].macCellId = 1
**.ue[163].masterId = 1
**.ue[164].macCellId = 1
**.ue[164].masterId = 1
**.ue[165].macCellId = 1
**.ue[165].masterId = 1
**.ue[166].macCellId = 1
**.ue[166].masterId = 1
**.ue[167].macCellId = 1
**.ue[167].masterId = 1
**.ue[168].macCellId = 1
**.ue[168].masterId = 1
**.ue[169].macCellId = 1
**.ue[169].masterId = 1
**.ue[170].macCellId = 1
**.ue[170].masterId = 1
**.ue[171].macCellId = 1
**.ue[171].masterId = 1
**.ue[172].macCellId = 1
**.ue[172].masterId = 1
**.ue[173].macCellId = 1
**.ue[173].masterId = 1
**.ue[174].macCellId = 1
**.ue[174].masterId = 1
**.ue[175].macCellId = 1
**.ue[175].masterId = 1
**.ue[176].macCellId = 1
**.ue[176].masterId = 1
**.ue[177].macCellId = 1
**.ue[177].masterId = 1
**.ue[178].macCellId = 1
**.ue[178].masterId = 1
**.ue[179].macCellId = 1
**.ue[179].masterId = 1
**.ue[180].macCellId = 1
**.ue[180].masterId = 1
**.ue[181].macCellId = 1
**.ue[181].masterId = 1
**.ue[182].macCellId = 1
**.ue[182].masterId = 1
**.ue[183].macCellId = 1
**.ue[183].masterId = 1
**.ue[184].macCellId = 1
**.ue[184].masterId = 1
**.ue[185].macCellId = 1
**.ue[185].masterId = 1
**.ue[186].macCellId = 1
**.ue[186].masterId = 1
**.ue[187].macCellId = 1
**.ue[187].masterId = 1
**.ue[188].macCellId = 1
**.ue[188].masterId = 1
**.ue[189].macCellId = 1
**.ue[189].masterId = 1
**.ue[190].macCellId = 1
**.ue[190].masterId = 1
**.ue[191].macCellId = 1
**.ue[191].masterId = 1
**.ue[192].macCellId = 1
**.ue[192].masterId = 1
**.ue[193].macCellId = 1
**.ue[193].masterId = 1
**.ue[194].macCellId = 1
**.ue[194].masterId = 1
**.ue[195].macCellId = 1
**.ue[195].masterId = 1
**.ue[196].macCellId = 1
**.ue[196].masterId = 1
**.ue[197].macCellId = 1
**.ue[197].masterId = 1
**.ue[198].macCellId = 1
**.ue[198].masterId = 1
**.ue[199].macCellId = 1
**.ue[199].masterId = 1
**.ue[200].macCellId = 1
**.ue[200].masterId = 1
**.ue[201].macCellId = 1
**.ue[201].masterId = 1
**.ue[202].macCellId = 1
**.ue[202].masterId = 1
**.ue[203].macCellId = 1
**.ue[203].masterId = 1
**.ue[204].macCellId = 1
**.ue[204].masterId = 1
**.ue[205].macCellId = 1
**.ue[205].masterId = 1
**.ue[206].macCellId = 1
**.ue[206].masterId = 1
**.ue[207].macCellId = 1
**.ue[207].masterId = 1
**.ue[208].macCellId = 1
**.ue[208].masterId = 1
**.ue[209].macCellId = 1
**.ue[209].masterId = 1
**.ue[210].macCellId = 1
**.ue[210].masterId = 1
**.ue[211].macCellId = 1
**.ue[211].masterId = 1
**.ue[212].macCellId = 1
**.ue[212].masterId = 1
**.ue[213].macCellId = 1
**.ue[213].masterId = 1
**.ue[214].macCellId = 1
**.ue[214].masterId = 1
**.ue[215].macCellId = 1
**.ue[215].masterId = 1
**.ue[216].macCellId = 1
**.ue[216].masterId = 1
**.ue[217].macCellId = 1
**.ue[217].masterId = 1
**.ue[218].macCellId = 1
**.ue[218].masterId = 1
**.ue[219].macCellId = 1
**.ue[219].masterId = 1
**.ue[220].macCellId = 1
**.ue[220].masterId = 1
**.ue[221].macCellId = 1
**.ue[221].masterId = 1
**.ue[222].macCellId = 1
**.ue[222].masterId = 1
**.ue[223].macCellId = 1
**.ue[223].masterId = 1
**.ue[224].macCellId = 1
**.ue[224].masterId = 1
**.ue[225].macCellId = 1
**.ue[225].masterId = 1
**.ue[226].macCellId = 1
**.ue[226].masterId = 1
**.ue[227].macCellId = 1
**.ue[227].masterId = 1
**.ue[228].macCellId = 1
**.ue[228].masterId = 1
**.ue[229].macCellId = 1
**.ue[229].masterId = 1
**.ue[230].macCellId = 1
**.ue[230].masterId = 1
**.ue[231].macCellId = 1
**.ue[231].masterId = 1
**.ue[232].macCellId = 1
**.ue[232].masterId = 1
**.ue[233].macCellId = 1
**.ue[233].masterId = 1
**.ue[234].macCellId = 1
**.ue[234].masterId = 1
**.ue[235].macCellId = 1
**.ue[235].masterId = 1
**.ue[236].macCellId = 1
**.ue[236].masterId = 1
**.ue[237].macCellId = 1
**.ue[237].masterId = 1
**.ue[238].macCellId = 1
**.ue[238].masterId = 1
**.ue[239].macCellId = 1
**.ue[239].masterId = 1
**.ue[240].macCellId = 1
**.ue[240].masterId = 1
**.ue[241].macCellId = 1
**.ue[241].masterId = 1
**.ue[242].macCellId = 1
**.ue[242].masterId = 1
**.ue[243].macCellId = 1
**.ue[243].masterId = 1
**.ue[244].macCellId = 1
**.ue[244].masterId = 1
**.ue[245].macCellId = 1
**.ue[245].masterId = 1
**.ue[246].macCellId = 1
**.ue[246].masterId = 1
**.ue[247].macCellId = 1
**.ue[247].masterId = 1
**.ue[248].macCellId = 1
**.ue[248].masterId = 1
**.ue[249].macCellId = 1
**.ue[249].masterId = 1
**.ue[250].macCellId = 1
**.ue[250].masterId = 1
**.ue[251].macCellId = 1
**.ue[251].masterId = 1
**.ue[252].macCellId = 1
**.ue[252].masterId = 1
**.ue[253].macCellId = 1
**.ue[253].masterId = 1
**.ue[254].macCellId = 1
**.ue[254].masterId = 1
**.ue[255].macCellId = 1
**.ue[255].masterId = 1
**.ue[256].macCellId = 1
**.ue[256].masterId = 1
**.ue[257].macCellId = 1
**.ue[257].masterId = 1
**.ue[258].macCellId = 1
**.ue[258].masterId = 1
**.ue[259].macCellId = 1
**.ue[259].masterId = 1
**.ue[260].macCellId = 1
**.ue[260].masterId = 1
**.ue[261].macCellId = 1
**.ue[261].masterId = 1
**.ue[262].macCellId = 1
**.ue[262].masterId = 1
**.ue[263].macCellId = 1
**.ue[263].masterId = 1
**.ue[264].macCellId = 1
**.ue[264].masterId = 1
**.ue[265].macCellId = 1
**.ue[265].masterId = 1
**.ue[266].macCellId = 1
**.ue[266].masterId = 1
**.ue[267].macCellId = 1
**.ue[267].masterId = 1
**.ue[268].macCellId = 1
**.ue[268].masterId = 1
**.ue[269].macCellId = 1
**.ue[269].masterId = 1
**.ue[270].macCellId = 1
**.ue[270].masterId = 1
**.ue[271].macCellId = 1
**.ue[271].masterId = 1
**.ue[272].macCellId = 1
**.ue[272].masterId = 1
**.ue[273].macCellId = 1
**.ue[273].masterId = 1
**.ue[274].macCellId = 1
**.ue[274].masterId = 1
**.ue[275].macCellId = 1
**.ue[275].masterId = 1
**.ue[276].macCellId = 1
**.ue[276].masterId = 1
**.ue[277].macCellId = 1
**.ue[277].masterId = 1
**.ue[278].macCellId = 1
**.ue[278].masterId = 1
**.ue[279].macCellId = 1
**.ue[279].masterId = 1
**.ue[280].macCellId = 1
**.ue[280].masterId = 1
**.ue[281].macCellId = 1
**.ue[281].masterId = 1
**.ue[282].macCellId = 1
**.ue[282].masterId = 1
**.ue[283].macCellId = 1
**.ue[283].masterId = 1
**.ue[284].macCellId = 1
**.ue[284].masterId = 1
**.ue[285].macCellId = 1
**.ue[285].masterId = 1
**.ue[286].macCellId = 1
**.ue[286].masterId = 1
**.ue[287].macCellId = 1
**.ue[287].masterId = 1
**.ue[288].macCellId = 1
**.ue[288].masterId = 1
**.ue[289].macCellId = 1
**.ue[289].masterId = 1
**.ue[290].macCellId = 1
**.ue[290].masterId = 1
**.ue[291].macCellId = 1
**.ue[291].masterId = 1
**.ue[292].macCellId = 1
**.ue[292].masterId = 1
**.ue[293].macCellId = 1
**.ue[293].masterId = 1
**.ue[294].macCellId = 1
**.ue[294].masterId = 1
**.ue[295].macCellId = 1
**.ue[295].masterId = 1
**.ue[296].macCellId = 1
**.ue[296].masterId = 1
**.ue[297].macCellId = 1
**.ue[297].masterId = 1
**.ue[298].macCellId = 1
**.ue[298].masterId = 1
**.ue[299].macCellId = 1
**.ue[299].masterId = 1

# Scheduler
**.schedulingDisciplineUl = ${sched= "MAXCI"}
**.schedulingDisciplineDl = ${sched}

############### Scenario ###############

# UEs
**.ue[0].cellularNic.channelModel[*].scenario = "URBAN_MACROCELL"
**.ue[1].cellularNic.channelModel[*].scenario = "URBAN_MACROCELL"
**.ue[2].cellularNic.channelModel[*].scenario = "URBAN_MACROCELL"
**.ue[3].cellularNic.channelModel[*].scenario = "URBAN_MACROCELL"
**.ue[4].cellularNic.channelModel[*].scenario = "URBAN_MACROCELL"
**.ue[5].cellularNic.channelModel[*].scenario = "URBAN_MACROCELL"
**.ue[6].cellularNic.channelModel[*].scenario = "URBAN_MACROCELL"
**.ue[7].cellularNic.channelModel[*].scenario = "URBAN_MACROCELL"
**.ue[8].cellularNic.channelModel[*].scenario = "URBAN_MACROCELL"
**.ue[9].cellularNic.channelModel[*].scenario = "URBAN_MACROCELL"
**.ue[10].cellularNic.channelModel[*].scenario = "URBAN_MACROCELL"
**.ue[11].cellularNic.channelModel[*].scenario = "URBAN_MACROCELL"
**.ue[12].cellularNic.channelModel[*].scenario = "URBAN_MACROCELL"
**.ue[13].cellularNic.channelModel[*].scenario = "URBAN_MACROCELL"
**.ue[14].cellularNic.channelModel[*].scenario = "URBAN_MACROCELL"
**.ue[15].cellularNic.channelModel[*].scenario = "URBAN_MACROCELL"
**.ue[16].cellularNic.channelModel[*].scenario = "URBAN_MACROCELL"
**.ue[17].cellularNic.channelModel[*].scenario = "URBAN_MACROCELL"
**.ue[18].cellularNic.channelModel[*].scenario = "URBAN_MACROCELL"
**.ue[19].cellularNic.channelModel[*].scenario = "URBAN_MACROCELL"
**.ue[20].cellularNic.channelModel[*].scenario = "URBAN_MACROCELL"
**.ue[21].cellularNic.channelModel[*].scenario = "URBAN_MACROCELL"
**.ue[22].cellularNic.channelModel[*].scenario = "URBAN_MACROCELL"
**.ue[23].cellularNic.channelModel[*].scenario = "URBAN_MACROCELL"
**.ue[24].cellularNic.channelModel[*].scenario = "URBAN_MACROCELL"
**.ue[25].cellularNic.channelModel[*].scenario = "URBAN_MACROCELL"
**.ue[26].cellularNic.channelModel[*].scenario = "URBAN_MACROCELL"
**.ue[27].cellularNic.channelModel[*].scenario = "URBAN_MACROCELL"
**.ue[28].cellularNic.channelModel[*].scenario = "URBAN_MACROCELL"
**.ue[29].cellularNic.channelModel[*].scenario = "URBAN_MACROCELL"
**.ue[30].cellularNic.channelModel[*].scenario = "URBAN_MACROCELL"
**.ue[31].cellularNic.channelModel[*].scenario = "URBAN_MACROCELL"
**.ue[32].cellularNic.channelModel[*].scenario = "URBAN_MACROCELL"
**.ue[33].cellularNic.channelModel[*].scenario = "URBAN_MACROCELL"
**.ue[34].cellularNic.channelModel[*].scenario = "URBAN_MACROCELL"
**.ue[35].cellularNic.channelModel[*].scenario = "URBAN_MACROCELL"
**.ue[36].cellularNic.channelModel[*].scenario = "URBAN_MACROCELL"
**.ue[37].cellularNic.channelModel[*].scenario = "URBAN_MACROCELL"
**.ue[38].cellularNic.channelModel[*].scenario = "URBAN_MACROCELL"
**.ue[39].cellularNic.channelModel[*].scenario = "URBAN_MACROCELL"
**.ue[40].cellularNic.channelModel[*].scenario = "URBAN_MACROCELL"
**.ue[41].cellularNic.channelModel[*].scenario = "URBAN_MACROCELL"
**.ue[42].cellularNic.channelModel[*].scenario = "URBAN_MACROCELL"
**.ue[43].cellularNic.channelModel[*].scenario = "URBAN_MACROCELL"
**.ue[44].cellularNic.channelModel[*].scenario = "URBAN_MACROCELL"
**.ue[45].cellularNic.channelModel[*].scenario = "URBAN_MACROCELL"
**.ue[46].cellularNic.channelModel[*].scenario = "URBAN_MACROCELL"
**.ue[47].cellularNic.channelModel[*].scenario = "URBAN_MACROCELL"
**.ue[48].cellularNic.channelModel[*].scenario = "URBAN_MACROCELL"
**.ue[49].cellularNic.channelModel[*].scenario = "URBAN_MACROCELL"
**.ue[50].cellularNic.channelModel[*].scenario = "URBAN_MACROCELL"
**.ue[51].cellularNic.channelModel[*].scenario = "URBAN_MACROCELL"
**.ue[52].cellularNic.channelModel[*].scenario = "URBAN_MACROCELL"
**.ue[53].cellularNic.channelModel[*].scenario = "URBAN_MACROCELL"
**.ue[54].cellularNic.channelModel[*].scenario = "URBAN_MACROCELL"
**.ue[55].cellularNic.channelModel[*].scenario = "URBAN_MACROCELL"
**.ue[56].cellularNic.channelModel[*].scenario = "URBAN_MACROCELL"
**.ue[57].cellularNic.channelModel[*].scenario = "URBAN_MACROCELL"
**.ue[58].cellularNic.channelModel[*].scenario = "URBAN_MACROCELL"
**.ue[59].cellularNic.channelModel[*].scenario = "URBAN_MACROCELL"
**.ue[60].cellularNic.channelModel[*].scenario = "URBAN_MACROCELL"
**.ue[61].cellularNic.channelModel[*].scenario = "URBAN_MACROCELL"
**.ue[62].cellularNic.channelModel[*].scenario = "URBAN_MACROCELL"
**.ue[63].cellularNic.channelModel[*].scenario = "URBAN_MACROCELL"
**.ue[64].cellularNic.channelModel[*].scenario = "URBAN_MACROCELL"
**.ue[65].cellularNic.channelModel[*].scenario = "URBAN_MACROCELL"
**.ue[66].cellularNic.channelModel[*].scenario = "URBAN_MACROCELL"
**.ue[67].cellularNic.channelModel[*].scenario = "URBAN_MACROCELL"
**.ue[68].cellularNic.channelModel[*].scenario = "URBAN_MACROCELL"
**.ue[69].cellularNic.channelModel[*].scenario = "URBAN_MACROCELL"
**.ue[70].cellularNic.channelModel[*].scenario = "URBAN_MACROCELL"
**.ue[71].cellularNic.channelModel[*].scenario = "URBAN_MACROCELL"
**.ue[72].cellularNic.channelModel[*].scenario = "URBAN_MACROCELL"
**.ue[73].cellularNic.channelModel[*].scenario = "URBAN_MACROCELL"
**.ue[74].cellularNic.channelModel[*].scenario = "URBAN_MACROCELL"
**.ue[75].cellularNic.channelModel[*].scenario = "URBAN_MACROCELL"
**.ue[76].cellularNic.channelModel[*].scenario = "URBAN_MACROCELL"
**.ue[77].cellularNic.channelModel[*].scenario = "URBAN_MACROCELL"
**.ue[78].cellularNic.channelModel[*].scenario = "URBAN_MACROCELL"
**.ue[79].cellularNic.channelModel[*].scenario = "URBAN_MACROCELL"
**.ue[80].cellularNic.channelModel[*].scenario = "URBAN_MACROCELL"
**.ue[81].cellularNic.channelModel[*].scenario = "URBAN_MACROCELL"
**.ue[82].cellularNic.channelModel[*].scenario = "URBAN_MACROCELL"
**.ue[83].cellularNic.channelModel[*].scenario = "URBAN_MACROCELL"
**.ue[84].cellularNic.channelModel[*].scenario = "URBAN_MACROCELL"
**.ue[85].cellularNic.channelModel[*].scenario = "URBAN_MACROCELL"
**.ue[86].cellularNic.channelModel[*].scenario = "URBAN_MACROCELL"
**.ue[87].cellularNic.channelModel[*].scenario = "URBAN_MACROCELL"
**.ue[88].cellularNic.channelModel[*].scenario = "URBAN_MACROCELL"
**.ue[89].cellularNic.channelModel[*].scenario = "URBAN_MACROCELL"
**.ue[90].cellularNic.channelModel[*].scenario = "URBAN_MACROCELL"
**.ue[91].cellularNic.channelModel[*].scenario = "URBAN_MACROCELL"
**.ue[92].cellularNic.channelModel[*].scenario = "URBAN_MACROCELL"
**.ue[93].cellularNic.channelModel[*].scenario = "URBAN_MACROCELL"
**.ue[94].cellularNic.channelModel[*].scenario = "URBAN_MACROCELL"
**.ue[95].cellularNic.channelModel[*].scenario = "URBAN_MACROCELL"
**.ue[96].cellularNic.channelModel[*].scenario = "URBAN_MACROCELL"
**.ue[97].cellularNic.channelModel[*].scenario = "URBAN_MACROCELL"
**.ue[98].cellularNic.channelModel[*].scenario = "URBAN_MACROCELL"
**.ue[99].cellularNic.channelModel[*].scenario = "URBAN_MACROCELL"
**.ue[100].cellularNic.channelModel[*].scenario = "URBAN_MACROCELL"
**.ue[101].cellularNic.channelModel[*].scenario = "URBAN_MACROCELL"
**.ue[102].cellularNic.channelModel[*].scenario = "URBAN_MACROCELL"
**.ue[103].cellularNic.channelModel[*].scenario = "URBAN_MACROCELL"
**.ue[104].cellularNic.channelModel[*].scenario = "URBAN_MACROCELL"
**.ue[105].cellularNic.channelModel[*].scenario = "URBAN_MACROCELL"
**.ue[106].cellularNic.channelModel[*].scenario = "URBAN_MACROCELL"
**.ue[107].cellularNic.channelModel[*].scenario = "URBAN_MACROCELL"
**.ue[108].cellularNic.channelModel[*].scenario = "URBAN_MACROCELL"
**.ue[109].cellularNic.channelModel[*].scenario = "URBAN_MACROCELL"
**.ue[110].cellularNic.channelModel[*].scenario = "URBAN_MACROCELL"
**.ue[111].cellularNic.channelModel[*].scenario = "URBAN_MACROCELL"
**.ue[112].cellularNic.channelModel[*].scenario = "URBAN_MACROCELL"
**.ue[113].cellularNic.channelModel[*].scenario = "URBAN_MACROCELL"
**.ue[114].cellularNic.channelModel[*].scenario = "URBAN_MACROCELL"
**.ue[115].cellularNic.channelModel[*].scenario = "URBAN_MACROCELL"
**.ue[116].cellularNic.channelModel[*].scenario = "URBAN_MACROCELL"
**.ue[117].cellularNic.channelModel[*].scenario = "URBAN_MACROCELL"
**.ue[118].cellularNic.channelModel[*].scenario = "URBAN_MACROCELL"
**.ue[119].cellularNic.channelModel[*].scenario = "URBAN_MACROCELL"
**.ue[120].cellularNic.channelModel[*].scenario = "URBAN_MACROCELL"
**.ue[121].cellularNic.channelModel[*].scenario = "URBAN_MACROCELL"
**.ue[122].cellularNic.channelModel[*].scenario = "URBAN_MACROCELL"
**.ue[123].cellularNic.channelModel[*].scenario = "URBAN_MACROCELL"
**.ue[124].cellularNic.channelModel[*].scenario = "URBAN_MACROCELL"
**.ue[125].cellularNic.channelModel[*].scenario = "URBAN_MACROCELL"
**.ue[126].cellularNic.channelModel[*].scenario = "URBAN_MACROCELL"
**.ue[127].cellularNic.channelModel[*].scenario = "URBAN_MACROCELL"
**.ue[128].cellularNic.channelModel[*].scenario = "URBAN_MACROCELL"
**.ue[129].cellularNic.channelModel[*].scenario = "URBAN_MACROCELL"
**.ue[130].cellularNic.channelModel[*].scenario = "URBAN_MACROCELL"
**.ue[131].cellularNic.channelModel[*].scenario = "URBAN_MACROCELL"
**.ue[132].cellularNic.channelModel[*].scenario = "URBAN_MACROCELL"
**.ue[133].cellularNic.channelModel[*].scenario = "URBAN_MACROCELL"
**.ue[134].cellularNic.channelModel[*].scenario = "URBAN_MACROCELL"
**.ue[135].cellularNic.channelModel[*].scenario = "URBAN_MACROCELL"
**.ue[136].cellularNic.channelModel[*].scenario = "URBAN_MACROCELL"
**.ue[137].cellularNic.channelModel[*].scenario = "URBAN_MACROCELL"
**.ue[138].cellularNic.channelModel[*].scenario = "URBAN_MACROCELL"
**.ue[139].cellularNic.channelModel[*].scenario = "URBAN_MACROCELL"
**.ue[140].cellularNic.channelModel[*].scenario = "URBAN_MACROCELL"
**.ue[141].cellularNic.channelModel[*].scenario = "URBAN_MACROCELL"
**.ue[142].cellularNic.channelModel[*].scenario = "URBAN_MACROCELL"
**.ue[143].cellularNic.channelModel[*].scenario = "URBAN_MACROCELL"
**.ue[144].cellularNic.channelModel[*].scenario = "URBAN_MACROCELL"
**.ue[145].cellularNic.channelModel[*].scenario = "URBAN_MACROCELL"
**.ue[146].cellularNic.channelModel[*].scenario = "URBAN_MACROCELL"
**.ue[147].cellularNic.channelModel[*].scenario = "URBAN_MACROCELL"
**.ue[148].cellularNic.channelModel[*].scenario = "URBAN_MACROCELL"
**.ue[149].cellularNic.channelModel[*].scenario = "URBAN_MACROCELL"
**.ue[150].cellularNic.channelModel[*].scenario = "URBAN_MACROCELL"
**.ue[151].cellularNic.channelModel[*].scenario = "URBAN_MACROCELL"
**.ue[152].cellularNic.channelModel[*].scenario = "URBAN_MACROCELL"
**.ue[153].cellularNic.channelModel[*].scenario = "URBAN_MACROCELL"
**.ue[154].cellularNic.channelModel[*].scenario = "URBAN_MACROCELL"
**.ue[155].cellularNic.channelModel[*].scenario = "URBAN_MACROCELL"
**.ue[156].cellularNic.channelModel[*].scenario = "URBAN_MACROCELL"
**.ue[157].cellularNic.channelModel[*].scenario = "URBAN_MACROCELL"
**.ue[158].cellularNic.channelModel[*].scenario = "URBAN_MACROCELL"
**.ue[159].cellularNic.channelModel[*].scenario = "URBAN_MACROCELL"
**.ue[160].cellularNic.channelModel[*].scenario = "URBAN_MACROCELL"
**.ue[161].cellularNic.channelModel[*].scenario = "URBAN_MACROCELL"
**.ue[162].cellularNic.channelModel[*].scenario = "URBAN_MACROCELL"
**.ue[163].cellularNic.channelModel[*].scenario = "URBAN_MACROCELL"
**.ue[164].cellularNic.channelModel[*].scenario = "URBAN_MACROCELL"
**.ue[165].cellularNic.channelModel[*].scenario = "URBAN_MACROCELL"
**.ue[166].cellularNic.channelModel[*].scenario = "URBAN_MACROCELL"
**.ue[167].cellularNic.channelModel[*].scenario = "URBAN_MACROCELL"
**.ue[168].cellularNic.channelModel[*].scenario = "URBAN_MACROCELL"