#Function: ilp_move_users
#Parameters:
#   filename: ../Network_CCOpMv/_5G/simulations/ilp_move_users-18.ini
#   seed: 18
#   size_y: 4000
#   size_x: 4000
#   size_sector: 400
#   n_macros: 1
#   config_name: ilp_move_users
#   num_slices: 10
#Extra = Using 1 macros with 60 ues each.
[General]
sim-time-limit = 10s

############### Statistics ###############
output-scalar-file = ${resultdir}/${configname}/${repetition}.sca
output-vector-file = ${resultdir}/${configname}/${repetition}.vec
**.vector-recording = false
eventlog-file = ${resultdir}/${configname}/${repetition}.elog
seed-set = ${repetition}

[Config ilp_move_users]
network = _5G.networks.SimpleNet
sim-time-limit = 10s
repeat = 1
seed-set = ${repetition}
num-rngs = 2
seed-1-mt = 18

output-scalar-file = ${resultdir}/${configname}/${repetition}.sca
output-vector-file = ${resultdir}/${configname}/${repetition}.vec
**.vector-recording = false
eventlog-file = ${resultdir}/${configname}/${repetition}.elog

############### Snapshots ###############
snapshot-file = ../../../Functions/ilp_move_users-18.sna
**.snapshotter.snapshot = true
**.snapshotter.delay = 1

############### Transmission Power ###############
**.ueTxPower = 24
**.eNodeBTxPower = 46
**.microTxPower = 30
**.cellularNic.phy.txDirection = "OMNI"

############### Channel Control ###############
**.numComponentCarriers = 1
*.carrierAggregation.componentCarrier[0].carrierFrequency = 0.7GHz

############### Channel Model ###############
**.cellularNic.LteChannelModelType = "LteRealisticChannelModel"
**.cellularNic.channelModel[*].building_height = 20
**.cellularNic.channelModel[*].nodeb_height = 25
**.cellularNic.channelModel[*].ue_height = 1.5
**.cellularNic.channelModel[*].street_wide = 20
**.cellularNic.channelModel[*].fading_type = "JAKES"
**.cellularNic.channelModel[*].extCell_interference = false
**.cellularNic.channelModel[*].antennGainEnB = 18
**.cellularNic.channelModel[*].antennGainMicro = 5
**.cellularNic.channelModel[*].antennaGainUe = 0
**.cellularNic.channelModel[*].bs_noise_figure = 5
**.cellularNic.channelModel[*].cable_loss = 2
**.cellularNic.channelModel[*].componentCarrierIndex = 0
**.cellularNic.channelModel[*].correlation_distance = 50
**.cellularNic.channelModel[*].d2d_interference = true
**.cellularNic.channelModel[*].delay_rms = 363e-9
**.cellularNic.channelModel[*].downlink_interference = false
**.cellularNic.channelModel[*].dynamic_los = false
**.cellularNic.channelModel[*].enable_extCell_los = true
**.cellularNic.channelModel[*].fading = true
**.cellularNic.channelModel[*].fading_paths = 6
**.cellularNic.channelModel[*].fixed_los = false
**.cellularNic.channelModel[*].harqReduction = 0.2
**.cellularNic.channelModel[*].inside_building = false
**.cellularNic.channelModel[*].lambdaMaxTh = 0.2
**.cellularNic.channelModel[*].lambdaMinTh = 0.02
**.cellularNic.channelModel[*].lambdaRatioTh = 20
**.cellularNic.channelModel[*].rsrqScale = 1.0
**.cellularNic.channelModel[*].rsrqShift = 22
**.cellularNic.channelModel[*].shadowing = true
**.cellularNic.channelModel[*].targetBler = 0.01
**.cellularNic.channelModel[*].thermalNoise = -104.5
**.cellularNic.channelModel[*].tolerateMaxDistViolation = true
**.cellularNic.channelModel[*].ue_noise_figure = 7
**.cellularNic.channelModel[*].uplink_interference = false
**.cellularNic.channelModel[*].useRsrqFromLog = false
**.cellularNic.channelModel[*].useTorus = false

############### Resource Blocks ###############
**.numBands = 6

############### UEs ###############
**.numUe = 60

# Conecting UEs to eNodeB
**.ue[0].macCellId = 1
**.ue[0].masterId = 1
**.ue[1].macCellId = 1
**.ue[1].masterId = 1
**.ue[2].macCellId = 1
**.ue[2].masterId = 1
**.ue[3].macCellId = 1
**.ue[3].masterId = 1
**.ue[4].macCellId = 1
**.ue[4].masterId = 1
**.ue[5].macCellId = 1
**.ue[5].masterId = 1
**.ue[6].macCellId = 1
**.ue[6].masterId = 1
**.ue[7].macCellId = 1
**.ue[7].masterId = 1
**.ue[8].macCellId = 1
**.ue[8].masterId = 1
**.ue[9].macCellId = 1
**.ue[9].masterId = 1
**.ue[10].macCellId = 1
**.ue[10].masterId = 1
**.ue[11].macCellId = 1
**.ue[11].masterId = 1
**.ue[12].macCellId = 1
**.ue[12].masterId = 1
**.ue[13].macCellId = 1
**.ue[13].masterId = 1
**.ue[14].macCellId = 1
**.ue[14].masterId = 1
**.ue[15].macCellId = 1
**.ue[15].masterId = 1
**.ue[16].macCellId = 1
**.ue[16].masterId = 1
**.ue[17].macCellId = 1
**.ue[17].masterId = 1
**.ue[18].macCellId = 1
**.ue[18].masterId = 1
**.ue[19].macCellId = 1
**.ue[19].masterId = 1
**.ue[20].macCellId = 1
**.ue[20].masterId = 1
**.ue[21].macCellId = 1
**.ue[21].masterId = 1
**.ue[22].macCellId = 1
**.ue[22].masterId = 1
**.ue[23].macCellId = 1
**.ue[23].masterId = 1
**.ue[24].macCellId = 1
**.ue[24].masterId = 1
**.ue[25].macCellId = 1
**.ue[25].masterId = 1
**.ue[26].macCellId = 1
**.ue[26].masterId = 1
**.ue[27].macCellId = 1
**.ue[27].masterId = 1
**.ue[28].macCellId = 1
**.ue[28].masterId = 1
**.ue[29].macCellId = 1
**.ue[29].masterId = 1
**.ue[30].macCellId = 1
**.ue[30].masterId = 1
**.ue[31].macCellId = 1
**.ue[31].masterId = 1
**.ue[32].macCellId = 1
**.ue[32].masterId = 1
**.ue[33].macCellId = 1
**.ue[33].masterId = 1
**.ue[34].macCellId = 1
**.ue[34].masterId = 1
**.ue[35].macCellId = 1
**.ue[35].masterId = 1
**.ue[36].macCellId = 1
**.ue[36].masterId = 1
**.ue[37].macCellId = 1
**.ue[37].masterId = 1
**.ue[38].macCellId = 1
**.ue[38].masterId = 1
**.ue[39].macCellId = 1
**.ue[39].masterId = 1
**.ue[40].macCellId = 1
**.ue[40].masterId = 1
**.ue[41].macCellId = 1
**.ue[41].masterId = 1
**.ue[42].macCellId = 1
**.ue[42].masterId = 1
**.ue[43].macCellId = 1
**.ue[43].masterId = 1
**.ue[44].macCellId = 1
**.ue[44].masterId = 1
**.ue[45].macCellId = 1
**.ue[45].masterId = 1
**.ue[46].macCellId = 1
**.ue[46].masterId = 1
**.ue[47].macCellId = 1
**.ue[47].masterId = 1
**.ue[48].macCellId = 1
**.ue[48].masterId = 1
**.ue[49].macCellId = 1
**.ue[49].masterId = 1
**.ue[50].macCellId = 1
**.ue[50].masterId = 1
**.ue[51].macCellId = 1
**.ue[51].masterId = 1
**.ue[52].macCellId = 1
**.ue[52].masterId = 1
**.ue[53].macCellId = 1
**.ue[53].masterId = 1
**.ue[54].macCellId = 1
**.ue[54].masterId = 1
**.ue[55].macCellId = 1
**.ue[55].masterId = 1
**.ue[56].macCellId = 1
**.ue[56].masterId = 1
**.ue[57].macCellId = 1
**.ue[57].masterId = 1
**.ue[58].macCellId = 1
**.ue[58].masterId = 1
**.ue[59].macCellId = 1
**.ue[59].masterId = 1

# Scheduler
**.schedulingDisciplineUl = ${sched= "MAXCI"}
**.schedulingDisciplineDl = ${sched}

############### Scenario ###############

# UEs
**.ue[0].cellularNic.channelModel[*].scenario = "URBAN_MACROCELL"
**.ue[1].cellularNic.channelModel[*].scenario = "URBAN_MACROCELL"
**.ue[2].cellularNic.channelModel[*].scenario = "URBAN_MACROCELL"
**.ue[3].cellularNic.channelModel[*].scenario = "URBAN_MACROCELL"
**.ue[4].cellularNic.channelModel[*].scenario = "URBAN_MACROCELL"
**.ue[5].cellularNic.channelModel[*].scenario = "URBAN_MACROCELL"
**.ue[6].cellularNic.channelModel[*].scenario = "URBAN_MACROCELL"
**.ue[7].cellularNic.channelModel[*].scenario = "URBAN_MACROCELL"
**.ue[8].cellularNic.channelModel[*].scenario = "URBAN_MACROCELL"
**.ue[9].cellularNic.channelModel[*].scenario = "URBAN_MACROCELL"
**.ue[10].cellularNic.channelModel[*].scenario = "URBAN_MACROCELL"
**.ue[11].cellularNic.channelModel[*].scenario = "URBAN_MACROCELL"
**.ue[12].cellularNic.channelModel[*].scenario = "URBAN_MACROCELL"
**.ue[13].cellularNic.channelModel[*].scenario = "URBAN_MACROCELL"
**.ue[14].cellularNic.channelModel[*].scenario = "URBAN_MACROCELL"
**.ue[15].cellularNic.channelModel[*].scenario = "URBAN_MACROCELL"
**.ue[16].cellularNic.channelModel[*].scenario = "URBAN_MACROCELL"
**.ue[17].cellularNic.channelModel[*].scenario = "URBAN_MACROCELL"
**.ue[18].cellularNic.channelModel[*].scenario = "URBAN_MACROCELL"
**.ue[19].cellularNic.channelModel[*].scenario = "URBAN_MACROCELL"
**.ue[20].cellularNic.channelModel[*].scenario = "URBAN_MACROCELL"
**.ue[21].cellularNic.channelModel[*].scenario = "URBAN_MACROCELL"
**.ue[22].cellularNic.channelModel[*].scenario = "URBAN_MACROCELL"
**.ue[23].cellularNic.channelModel[*].scenario = "URBAN_MACROCELL"
**.ue[24].cellularNic.channelModel[*].scenario = "URBAN_MACROCELL"
**.ue[25].cellularNic.channelModel[*].scenario = "URBAN_MACROCELL"
**.ue[26].cellularNic.channelModel[*].scenario = "URBAN_MACROCELL"
**.ue[27].cellularNic.channelModel[*].scenario = "URBAN_MACROCELL"
**.ue[28].cellularNic.channelModel[*].scenario = "URBAN_MACROCELL"
**.ue[29].cellularNic.channelModel[*].scenario = "URBAN_MACROCELL"
**.ue[30].cellularNic.channelModel[*].scenario = "URBAN_MACROCELL"
**.ue[31].cellularNic.channelModel[*].scenario = "URBAN_MACROCELL"
**.ue[32].cellularNic.channelModel[*].scenario = "URBAN_MACROCELL"
**.ue[33].cellularNic.channelModel[*].scenario = "URBAN_MACROCELL"
**.ue[34].cellularNic.channelModel[*].scenario = "URBAN_MACROCELL"
**.ue[35].cellularNic.channelModel[*].scenario = "URBAN_MACROCELL"
**.ue[36].cellularNic.channelModel[*].scenario = "URBAN_MACROCELL"
**.ue[37].cellularNic.channelModel[*].scenario = "URBAN_MACROCELL"
**.ue[38].cellularNic.channelModel[*].scenario = "URBAN_MACROCELL"
**.ue[39].cellularNic.channelModel[*].scenario = "URBAN_MACROCELL"
**.ue[40].cellularNic.channelModel[*].scenario = "URBAN_MACROCELL"
**.ue[41].cellularNic.channelModel[*].scenario = "URBAN_MACROCELL"
**.ue[42].cellularNic.channelModel[*].scenario = "URBAN_MACROCELL"
**.ue[43].cellularNic.channelModel[*].scenario = "URBAN_MACROCELL"
**.ue[44].cellularNic.channelModel[*].scenario = "URBAN_MACROCELL"
**.ue[45].cellularNic.channelModel[*].scenario = "URBAN_MACROCELL"
**.ue[46].cellularNic.channelModel[*].scenario = "URBAN_MACROCELL"
**.ue[47].cellularNic.channelModel[*].scenario = "URBAN_MACROCELL"
**.ue[48].cellularNic.channelModel[*].scenario = "URBAN_MACROCELL"
**.ue[49].cellularNic.channelModel[*].scenario = "URBAN_MACROCELL"
**.ue[50].cellularNic.channelModel[*].scenario = "URBAN_MACROCELL"
**.ue[51].cellularNic.channelModel[*].scenario = "URBAN_MACROCELL"
**.ue[52].cellularNic.channelModel[*].scenario = "URBAN_MACROCELL"
**.ue[53].cellularNic.channelModel[*].scenario = "URBAN_MACROCELL"
**.ue[54].cellularNic.channelModel[*].scenario = "URBAN_MACROCELL"
**.ue[55].cellularNic.channelModel[*].scenario = "URBAN_MACROCELL"
**.ue[56].cellularNic.channelModel[*].scenario = "URBAN_MACROCELL"
**.ue[57].cellularNic.channelModel[*].scenario = "URBAN_MACROCELL"
**.ue[58].cellularNic.channelModel[*].scenario = "URBAN_MACROCELL"
**.ue[59].cellularNic.channelModel[*].scenario = "URBAN_MACROCELL"

############### Mobility ###############

# UEs

*.ue[*].mobilityType = "VariableSpeedMobility"
*.ue[*].mobility.changeInterval = 1s
*.ue[*].mobility.meanSpeed = 3000mps
*.ue[*].mobility.standardDeviation = 1000
*.ue[0].mobility.initialX = 673.2367154966547m
*.ue[0].mobility.initialY = 2376.9807147104902m
*.ue[0].mobility.initialZ = 0m
*.ue[0].mobility.initFromDisplayString = false
*.ue[1].mobility.initialX = 986.1027710042531m
*.ue[1].mobility.initialY = 2340.4985707562173m
*.ue[1].mobility.initialZ = 0m
*.ue[1].mobility.initFromDisplayString = false
*.ue[2].mobility.initialX = 1164.2459692967145m
*.ue[2].mobility.initialY = 2216.1487973985877m
*.ue[2].mobility.initialZ = 0m
*.ue[2].mobility.initFromDisplayString = false
*.ue[3].mobility.initialX = 992.3548594879043m
*.ue[3].mobility.initialY = 2071.5803077284186m
*.ue[3].mobility.initialZ = 0m
*.ue[3].mobility.initFromDisplayString = false
*.ue[4].mobility.initialX = 1146.0260553672383m
*.ue[4].mobility.initialY = 2144.083187716832m
*.ue[4].mobility.initialZ = 0m
*.ue[4].mobility.initFromDisplayString = false
*.ue[5].mobility.initialX = 813.207950462897m
*.ue[5].mobility.initialY = 2288.544540399212m
*.ue[5].mobility.initialZ = 0m
*.ue[5].mobility.initFromDisplayString = false
*.ue[6].mobility.initialX = 1290.44670300572m
*.ue[6].mobility.initialY = 2293.2620302364057m
*.ue[6].mobility.initialZ = 0m
*.ue[6].mobility.initFromDisplayString = false
*.ue[7].mobility.initialX = 697.890949856589m
*.ue[7].mobility.initialY = 2425.5399906843018m
*.ue[7].mobility.initialZ = 0m
*.ue[7].mobility.initFromDisplayString = false
*.ue[8].mobility.initialX = 714.6856019503014m
*.ue[8].mobility.initialY = 2659.8779788775073m
*.ue[8].mobility.initialZ = 0m
*.ue[8].mobility.initFromDisplayString = false
*.ue[9].mobility.initialX = 629.2624454692123m
*.ue[9].mobility.initialY = 2422.1352729886385m
*.ue[9].mobility.initialZ = 0m
*.ue[9].mobility.initFromDisplayString = false
*.ue[10].mobility.initialX = 676.2105217014507m
*.ue[10].mobility.initialY = 2413.6019923140275m
*.ue[10].mobility.initialZ = 0m
*.ue[10].mobility.initFromDisplayString = false
*.ue[11].mobility.initialX = 1075.9452049908018m
*.ue[11].mobility.initialY = 2729.631703063005m
*.ue[11].mobility.initialZ = 0m
*.ue[11].mobility.initFromDisplayString = false
*.ue[12].mobility.initialX = 1104.6374610633807m
*.ue[12].mobility.initialY = 2681.5765150855673m
*.ue[12].mobility.initialZ = 0m
*.ue[12].mobility.initFromDisplayString = false
*.ue[13].mobility.initialX = 1138.594865894016m
*.ue[13].mobility.initialY = 2767.777283025493m
*.ue[13].mobility.initialZ = 0m
*.ue[13].mobility.initFromDisplayString = false
*.ue[14].mobility.initialX = 1135.547005246544m
*.ue[14].mobility.initialY = 2785.0363962687334m
*.ue[14].mobility.initialZ = 0m
*.ue[14].mobility.initFromDisplayString = false
*.ue[15].mobility.initialX = 1145.9935029036612m
*.ue[15].mobility.initialY = 2671.8925350700724m
*.ue[15].mobility.initialZ = 0m
*.ue[15].mobility.initFromDisplayString = false
*.ue[16].mobility.initialX = 1165.587478465057m
*.ue[16].mobility.initialY = 2694.5718639356182m
*.ue[16].mobility.initialZ = 0m
*.ue[16].mobility.initFromDisplayString = false
*.ue[17].mobility.initialX = 1084.1816083306248m
*.ue[17].mobility.initialY = 2742.606307237674m
*.ue[17].mobility.initialZ = 0m
*.ue[17].mobility.initFromDisplayString = false
*.ue[18].mobility.initialX = 1070.3205023235757m
*.ue[18].mobility.initialY = 2705.6284851388705m
*.ue[18].mobility.initialZ = 0m
*.ue[18].mobility.initFromDisplayString = false
*.ue[19].mobility.initialX = 1146.8040487881808m
*.ue[19].mobility.initialY = 2730.0632740447554m
*.ue[19].mobility.initialZ = 0m
*.ue[19].mobility.initFromDisplayString = false
*.ue[20].mobility.initialX = 1076.9933941161196m
*.ue[20].mobility.initialY = 2668.4564396471565m
*.ue[20].mobility.initialZ = 0m
*.ue[20].mobility.initFromDisplayString = false
*.ue[21].mobility.initialX = 1093.7197905168491m
*.ue[21].mobility.initialY = 2739.0569127611966m
*.ue[21].mobility.initialZ = 0m
*.ue[21].mobility.initFromDisplayString = false
*.ue[22].mobility.initialX = 1102.3393567369703m
*.ue[22].mobility.initialY = 2778.1389056181706m
*.ue[22].mobility.initialZ = 0m
*.ue[22].mobility.initFromDisplayString = false
*.ue[23].mobility.initialX = 1120.7867064843997m
*.ue[23].mobility.initialY = 2688.908798779958m
*.ue[23].mobility.initialZ = 0m
*.ue[23].mobility.initFromDisplayString = false
*.ue[24].mobility.initialX = 1072.1910774517187m
*.ue[24].mobility.initialY = 2730.4354123548273m
*.ue[24].mobility.initialZ = 0m
*.ue[24].mobility.initFromDisplayString = false
*.ue[25].mobility.initialX = 1081.335451788632m
*.ue[25].mobility.initialY = 2741.478062853512m
*.ue[25].mobility.initialZ = 0m
*.ue[25].mobility.initFromDisplayString = false
*.ue[26].mobility.initialX = 1121.358053231649m
*.ue[26].mobility.initialY = 2630.011560691975m
*.ue[26].mobility.initialZ = 0m
*.ue[26].mobility.initFromDisplayString = false
*.ue[27].mobility.initialX = 1180.412036741034m
*.ue[27].mobility.initialY = 2690.018565504397m
*.ue[27].mobility.initialZ = 0m
*.ue[27].mobility.initFromDisplayString = false
*.ue[28].mobility.initialX = 1172.0629019403016m
*.ue[28].mobility.initialY = 2738.262920518729m
*.ue[28].mobility.initialZ = 0m
*.ue[28].mobility.initFromDisplayString = false
*.ue[29].mobility.initialX = 1075.5078460897532m
*.ue[29].mobility.initialY = 2753.0013869144186m
*.ue[29].mobility.initialZ = 0m
*.ue[29].mobility.initFromDisplayString = false
*.ue[30].mobility.initialX = 1192.4553964402812m
*.ue[30].mobility.initialY = 2721.9194817187786m
*.ue[30].mobility.initialZ = 0m
*.ue[30].mobility.initFromDisplayString = false
*.ue[31].mobility.initialX = 1040.178476645415m
*.ue[31].mobility.initialY = 2575.076511132418m
*.ue[31].mobility.initialZ = 0m
*.ue[31].mobility.initFromDisplayString = false
*.ue[32].mobility.initialX = 1141.2473700628561m
*.ue[32].mobility.initialY = 2738.3944287869986m
*.ue[32].mobility.initialZ = 0m
*.ue[32].mobility.initFromDisplayString = false
*.ue[33].mobility.initialX = 1155.5553755957894m
*.ue[33].mobility.initialY = 2661.779722981438m
*.ue[33].mobility.initialZ = 0m
*.ue[33].mobility.initFromDisplayString = false
*.ue[34].mobility.initialX = 1172.3989040681956m
*.ue[34].mobility.initialY = 2674.3800222813848m
*.ue[34].mobility.initialZ = 0m
*.ue[34].mobility.initFromDisplayString = false
*.ue[35].mobility.initialX = 1108.7514560899397m
*.ue[35].mobility.initialY = 2733.252678244604m
*.ue[35].mobility.initialZ = 0m
*.ue[35].mobility.initFromDisplayString = false
*.ue[36].mobility.initialX = 1132.9938404801694m
*.ue[36].mobility.initialY = 2651.201026184416m
*.ue[36].mobility.initialZ = 0m
*.ue[36].mobility.initFromDisplayString = false
*.ue[37].mobility.initialX = 1153.3148967449354m
*.ue[37].mobility.initialY = 2716.380605788658m
*.ue[37].mobility.initialZ = 0m
*.ue[37].mobility.initFromDisplayString = false
*.ue[38].mobility.initialX = 1070.4976090682926m
*.ue[38].mobility.initialY = 2689.4677750875817m
*.ue[38].mobility.initialZ = 0m
*.ue[38].mobility.initFromDisplayString = false
*.ue[39].mobility.initialX = 1178.6272605082734m
*.ue[39].mobility.initialY = 2723.5379835472795m
*.ue[39].mobility.initialZ = 0m
*.ue[39].mobility.initFromDisplayString = false
*.ue[40].mobility.initialX = 1116.9667083347042m
*.ue[40].mobility.initialY = 2766.8196057301807m
*.ue[40].mobility.initialZ = 0m
*.ue[40].mobility.initFromDisplayString = false
*.ue[41].mobility.initialX = 1156.8151119116449m
*.ue[41].mobility.initialY = 2730.8144193569187m
*.ue[41].mobility.initialZ = 0m
*.ue[41].mobility.initFromDisplayString = false
*.ue[42].mobility.initialX = 1155.3788534638707m
*.ue[42].mobility.initialY = 2698.5666726435006m
*.ue[42].mobility.initialZ = 0m
*.ue[42].mobility.initFromDisplayString = false
*.ue[43].mobility.initialX = 1133.9744488589513m
*.ue[43].mobility.initialY = 2768.6921325902426m
*.ue[43].mobility.initialZ = 0m
*.ue[43].mobility.initFromDisplayString = false
*.ue[44].mobility.initialX = 1186.8707448991208m
*.ue[44].mobility.initialY = 2728.994790357719m
*.ue[44].mobility.initialZ = 0m
*.ue[44].mobility.initFromDisplayString = false
*.ue[45].mobility.initialX = 1064.722576068677m
*.ue[45].mobility.initialY = 2721.94601201841m
*.ue[45].mobility.initialZ = 0m
*.ue[45].mobility.initFromDisplayString = false
*.ue[46].mobility.initialX = 1023.584088314418m
*.ue[46].mobility.initialY = 2724.849634149948m
*.ue[46].mobility.initialZ = 0m
*.ue[46].mobility.initFromDisplayString = false
*.ue[47].mobility.initialX = 1091.9932599201254m
*.ue[47].mobility.initialY = 2773.487360241177m
*.ue[47].mobility.initialZ = 0m
*.ue[47].mobility.initFromDisplayString = false
*.ue[48].mobility.initialX = 1175.0643383352433m
*.ue[48].mobility.initialY = 2739.0306534938336m
*.ue[48].mobility.initialZ = 0m
*.ue[48].mobility.initFromDisplayString = false
*.ue[49].mobility.initialX = 1160.5438185140251m
*.ue[49].mobility.initialY = 2770.5409481000897m
*.ue[49].mobility.initialZ = 0m
*.ue[49].mobility.initFromDisplayString = false
*.ue[50].mobility.initialX = 1224.237903643478m
*.ue[50].mobility.initialY = 2769.6594915023516m
*.ue[50].mobility.initialZ = 0m
*.ue[50].mobility.initFromDisplayString = false
*.ue[51].mobility.initialX = 1354.4158729084645m
*.ue[51].mobility.initialY = 2519.8233441974985m
*.ue[51].mobility.initialZ = 0m
*.ue[51].mobility.initFromDisplayString = false
*.ue[52].mobility.initialX = 1236.8430346283585m
*.ue[52].mobility.initialY = 2584.8028118442517m
*.ue[52].mobility.initialZ = 0m
*.ue[52].mobility.initFromDisplayString = false
*.ue[53].mobility.initialX = 1328.2183061026524m
*.ue[53].mobility.initialY = 2521.3489661538747m
*.ue[53].mobility.initialZ = 0m
*.ue[53].mobility.initFromDisplayString = false
*.ue[54].mobility.initialX = 1326.094564142885m
*.ue[54].mobility.initialY = 2514.8391001640152m
*.ue[54].mobility.initialZ = 0m
*.ue[54].mobility.initFromDisplayString = false
*.ue[55].mobility.initialX = 1268.384521648917m
*.ue[55].mobility.initialY = 2626.538586034553m
*.ue[55].mobility.initialZ = 0m
*.ue[55].mobility.initFromDisplayString = false
*.ue[56].mobility.initialX = 1255.1591740321428m
*.ue[56].mobility.initialY = 2439.453497416973m
*.ue[56].mobility.initialZ = 0m
*.ue[56].mobility.initFromDisplayString = false
*.ue[57].mobility.initialX = 1083.797074083143m
*.ue[57].mobility.initialY = 2895.2842651683827m
*.ue[57].mobility.initialZ = 0m
*.ue[57].mobility.initFromDisplayString = false
*.ue[58].mobility.initialX = 1125.9385071571016m
*.ue[58].mobility.initialY = 2864.049856893848m
*.ue[58].mobility.initialZ = 0m
*.ue[58].mobility.initFromDisplayString = false
*.ue[59].mobility.initialX = 1080.8799412116496m
*.ue[59].mobility.initialY = 2906.2439827925596m
*.ue[59].mobility.initialZ = 0m
*.ue[59].mobility.initFromDisplayString = false
*.ue[0].mobility.initialMovementHeading = 205.54935520803423deg
*.ue[1].mobility.initialMovementHeading = 304.4623166423946deg
*.ue[2].mobility.initialMovementHeading = 308.6175698027643deg
*.ue[3].mobility.initialMovementHeading = 344.43645341229734deg
*.ue[4].mobility.initialMovementHeading = 221.36830931832208deg
*.ue[5].mobility.initialMovementHeading = 16.168998450288573deg
*.ue[6].mobility.initialMovementHeading = 195.7311220489241deg
*.ue[7].mobility.initialMovementHeading = 281.0937972505736deg
*.ue[8].mobility.initialMovementHeading = 212.02088085085998deg
*.ue[9].mobility.initialMovementHeading = 114.38656748688209deg
*.ue[10].mobility.initialMovementHeading = 32.43775080983054deg
*.ue[11].mobility.initialMovementHeading = 334.5390726920011deg
*.ue[12].mobility.initialMovementHeading = 65.70928112657431deg
*.ue[13].mobility.initialMovementHeading = 121.98648862082227deg
*.ue[14].mobility.initialMovementHeading = 342.91043496285033deg
*.ue[15].mobility.initialMovementHeading = 150.43602548745156deg
*.ue[16].mobility.initialMovementHeading = 41.97500272600966deg
*.ue[17].mobility.initialMovementHeading = 101.76628181640176deg
*.ue[18].mobility.initialMovementHeading = 110.53725838908794deg
*.ue[19].mobility.initialMovementHeading = 345.8324210245511deg
*.ue[20].mobility.initialMovementHeading = 38.687104191212825deg
*.ue[21].mobility.initialMovementHeading = 196.58379361701424deg
*.ue[22].mobility.initialMovementHeading = 288.46203291823696deg
*.ue[23].mobility.initialMovementHeading = 290.24281452554175deg
*.ue[24].mobility.initialMovementHeading = 195.27449069375524deg
*.ue[25].mobility.initialMovementHeading = 113.52049207205786deg
*.ue[26].mobility.initialMovementHeading = 276.76005249637143deg
*.ue[27].mobility.initialMovementHeading = 146.41022499115812deg
*.ue[28].mobility.initialMovementHeading = 190.9887960919392deg
*.ue[29].mobility.initialMovementHeading = 220.96210118687085deg
*.ue[30].mobility.initialMovementHeading = 121.93059630740424deg
*.ue[31].mobility.initialMovementHeading = 155.03281020409176deg
*.ue[32].mobility.initialMovementHeading = 73.56261177448226deg
*.ue[33].mobility.initialMovementHeading = 163.69928693171815deg
*.ue[34].mobility.initialMovementHeading = 21.82589831984876deg
*.ue[35].mobility.initialMovementHeading = 220.99081603482523deg
*.ue[36].mobility.initialMovementHeading = 39.85115728374491deg
*.ue[37].mobility.initialMovementHeading = 29.374990035003247deg
*.ue[38].mobility.initialMovementHeading = 318.30285895498866deg
*.ue[39].mobility.initialMovementHeading = 201.1010135314958deg
*.ue[40].mobility.initialMovementHeading = 182.30938041207366deg
*.ue[41].mobility.initialMovementHeading = 66.36733714115309deg
*.ue[42].mobility.initialMovementHeading = 67.96072787919597deg
*.ue[43].mobility.initialMovementHeading = 166.70683430636768deg
*.ue[44].mobility.initialMovementHeading = 99.65777895089514deg
*.ue[45].mobility.initialMovementHeading = 136.28491747174922deg
*.ue[46].mobility.initialMovementHeading = 85.91746236119803deg
*.ue[47].mobility.initialMovementHeading = 140.56201462381298deg
*.ue[48].mobility.initialMovementHeading = 129.56838232590525deg
*.ue[49].mobility.initialMovementHeading = 201.15504635789634deg
*.ue[50].mobility.initialMovementHeading = 305.42155857776766deg
*.ue[51].mobility.initialMovementHeading = 271.48067795723927deg
*.ue[52].mobility.initialMovementHeading = 297.8230634143125deg
*.ue[53].mobility.initialMovementHeading = 319.2915943392473deg
*.ue[54].mobility.initialMovementHeading = 229.48143781178885deg
*.ue[55].mobility.initialMovementHeading = 178.83450096595436deg
*.ue[56].mobility.initialMovementHeading = 31.350331337950262deg
*.ue[57].mobility.initialMovementHeading = 45.20672471682818deg
*.ue[58].mobility.initialMovementHeading = 210.4328861522099deg
*.ue[59].mobility.initialMovementHeading = 17.040945989178272deg
*.ue[*].mobility.constraintAreaMaxX = 4000 m
*.ue[*].mobility.constraintAreaMaxY = 4000 m
*.ue[*].mobility.constraintAreaMaxZ = inf m
*.ue[*].mobility.constraintAreaMinX = 0 m
*.ue[*].mobility.constraintAreaMinY = 0 m
*.ue[*].mobility.constraintAreaMinZ = -inf m
