#Function: ilp_fixed_users
#Parameters: 
#  filename = '../Network_CCOpMv/_5G/simulations/ilp_fixed_users.ini'
#  seed = 123
#  Map height distance = 8000
#  Map width distance = 8000
#  Region side distance = 800
#  Extra = Using 2 macros with 60 ues each.
[General]
sim-time-limit = 10s

############### Statistics ###############
output-scalar-file = ${resultdir}/${configname}/${repetition}.sca
output-vector-file = ${resultdir}/${configname}/${repetition}.vec
**.vector-recording = false
seed-set = ${repetition}

[Config ilp_fixed_users]
network = _5G.networks.SimpleNet
sim-time-limit = 10s
repeat = 1
seed-set = ${repetition}
num-rngs = 2
seed-1-mt = 123

output-scalar-file = ${resultdir}/${configname}/${repetition}.sca
output-vector-file = ${resultdir}/${configname}/${repetition}.vec
**.vector-recording = false

############### Snapshots ###############
snapshot-file = ${resultdir}/${configname}-${iterationvarsf}-${repetition}.sna
**.snapshotter.snapshot = true
**.snapshotter.delay = 1.0

############### Transmission Power ###############
**.ueTxPower = 24
**.eNodeBTxPower = 46
**.microTxPower = 30
*.eNB.cellularNic.phy.txDirection = "OMNI"

############### Channel Control ###############
*.carrierAggregation.componentCarrier[*].carrierFrequency = 0.7GHz

############### Channel Model ###############
**.cellularNic.channelModel[*].building_height = 20
**.cellularNic.channelModel[*].nodeb_height = 25
**.cellularNic.channelModel[*].ue_height = 1.5
**.cellularNic.channelModel[*].street_wide = 20
**.cellularNic.channelModel[*].fading_type = "JAKES"
**.cellularNic.channelModel[*].extCell_interference = false
**.cellularNic.channelModel[*].antennGainEnB = 18
**.cellularNic.channelModel[*].antennGainMicro = 5
**.cellularNic.channelModel[*].antennaGainUe = 0
**.cellularNic.channelModel[*].bs_noise_figure = 5
**.cellularNic.channelModel[*].cable_loss = 2
**.cellularNic.channelModel[*].componentCarrierIndex = 0
**.cellularNic.channelModel[*].correlation_distance = 50
**.cellularNic.channelModel[*].d2d_interference = true
**.cellularNic.channelModel[*].delay_rms = 363e-9
**.cellularNic.channelModel[*].downlink_interference = false 
**.cellularNic.channelModel[*].dynamic_los = false
**.cellularNic.channelModel[*].enable_extCell_los = true
**.cellularNic.channelModel[*].fading = true
**.cellularNic.channelModel[*].fading_paths = 6
**.cellularNic.channelModel[*].fixed_los = false
**.cellularNic.channelModel[*].harqReduction = 0.2
**.cellularNic.channelModel[*].inside_building = false
**.cellularNic.channelModel[*].lambdaMaxTh = 0.2
**.cellularNic.channelModel[*].lambdaMinTh = 0.02
**.cellularNic.channelModel[*].lambdaRatioTh = 20
**.cellularNic.channelModel[*].rsrqScale = 1.0
**.cellularNic.channelModel[*].rsrqShift = 22
**.cellularNic.channelModel[*].shadowing = true
**.cellularNic.channelModel[*].targetBler = 0.01
**.cellularNic.channelModel[*].thermalNoise = -104.5
**.cellularNic.channelModel[*].tolerateMaxDistViolation = true
**.cellularNic.channelModel[*].ue_noise_figure = 7
**.cellularNic.channelModel[*].uplink_interference = false
**.cellularNic.channelModel[*].useRsrqFromLog = false
**.cellularNic.channelModel[*].useTorus = false

############### Resource Blocks ###############
**.numBands = 6

############### UEs ###############
**.numUe = 120

# Conecting UEs to eNodeB
**.ue[0].macCellId = 1
**.ue[0].masterId = 1
**.ue[1].macCellId = 1
**.ue[1].masterId = 1
**.ue[2].macCellId = 1
**.ue[2].masterId = 1
**.ue[3].macCellId = 1
**.ue[3].masterId = 1
**.ue[4].macCellId = 1
**.ue[4].masterId = 1
**.ue[5].macCellId = 1
**.ue[5].masterId = 1
**.ue[6].macCellId = 1
**.ue[6].masterId = 1
**.ue[7].macCellId = 1
**.ue[7].masterId = 1
**.ue[8].macCellId = 1
**.ue[8].masterId = 1
**.ue[9].macCellId = 1
**.ue[9].masterId = 1
**.ue[10].macCellId = 1
**.ue[10].masterId = 1
**.ue[11].macCellId = 1
**.ue[11].masterId = 1
**.ue[12].macCellId = 1
**.ue[12].masterId = 1
**.ue[13].macCellId = 1
**.ue[13].masterId = 1
**.ue[14].macCellId = 1
**.ue[14].masterId = 1
**.ue[15].macCellId = 1
**.ue[15].masterId = 1
**.ue[16].macCellId = 1
**.ue[16].masterId = 1
**.ue[17].macCellId = 1
**.ue[17].masterId = 1
**.ue[18].macCellId = 1
**.ue[18].masterId = 1
**.ue[19].macCellId = 1
**.ue[19].masterId = 1
**.ue[20].macCellId = 1
**.ue[20].masterId = 1
**.ue[21].macCellId = 1
**.ue[21].masterId = 1
**.ue[22].macCellId = 1
**.ue[22].masterId = 1
**.ue[23].macCellId = 1
**.ue[23].masterId = 1
**.ue[24].macCellId = 1
**.ue[24].masterId = 1
**.ue[25].macCellId = 1
**.ue[25].masterId = 1
**.ue[26].macCellId = 1
**.ue[26].masterId = 1
**.ue[27].macCellId = 1
**.ue[27].masterId = 1
**.ue[28].macCellId = 1
**.ue[28].masterId = 1
**.ue[29].macCellId = 1
**.ue[29].masterId = 1
**.ue[30].macCellId = 1
**.ue[30].masterId = 1
**.ue[31].macCellId = 1
**.ue[31].masterId = 1
**.ue[32].macCellId = 1
**.ue[32].masterId = 1
**.ue[33].macCellId = 1
**.ue[33].masterId = 1
**.ue[34].macCellId = 1
**.ue[34].masterId = 1
**.ue[35].macCellId = 1
**.ue[35].masterId = 1
**.ue[36].macCellId = 1
**.ue[36].masterId = 1
**.ue[37].macCellId = 1
**.ue[37].masterId = 1
**.ue[38].macCellId = 1
**.ue[38].masterId = 1
**.ue[39].macCellId = 1
**.ue[39].masterId = 1
**.ue[40].macCellId = 1
**.ue[40].masterId = 1
**.ue[41].macCellId = 1
**.ue[41].masterId = 1
**.ue[42].macCellId = 1
**.ue[42].masterId = 1
**.ue[43].macCellId = 1
**.ue[43].masterId = 1
**.ue[44].macCellId = 1
**.ue[44].masterId = 1
**.ue[45].macCellId = 1
**.ue[45].masterId = 1
**.ue[46].macCellId = 1
**.ue[46].masterId = 1
**.ue[47].macCellId = 1
**.ue[47].masterId = 1
**.ue[48].macCellId = 1
**.ue[48].masterId = 1
**.ue[49].macCellId = 1
**.ue[49].masterId = 1
**.ue[50].macCellId = 1
**.ue[50].masterId = 1
**.ue[51].macCellId = 1
**.ue[51].masterId = 1
**.ue[52].macCellId = 1
**.ue[52].masterId = 1
**.ue[53].macCellId = 1
**.ue[53].masterId = 1
**.ue[54].macCellId = 1
**.ue[54].masterId = 1
**.ue[55].macCellId = 1
**.ue[55].masterId = 1
**.ue[56].macCellId = 1
**.ue[56].masterId = 1
**.ue[57].macCellId = 1
**.ue[57].masterId = 1
**.ue[58].macCellId = 1
**.ue[58].masterId = 1
**.ue[59].macCellId = 1
**.ue[59].masterId = 1
**.ue[60].macCellId = 1
**.ue[60].masterId = 1
**.ue[61].macCellId = 1
**.ue[61].masterId = 1
**.ue[62].macCellId = 1
**.ue[62].masterId = 1
**.ue[63].macCellId = 1
**.ue[63].masterId = 1
**.ue[64].macCellId = 1
**.ue[64].masterId = 1
**.ue[65].macCellId = 1
**.ue[65].masterId = 1
**.ue[66].macCellId = 1
**.ue[66].masterId = 1
**.ue[67].macCellId = 1
**.ue[67].masterId = 1
**.ue[68].macCellId = 1
**.ue[68].masterId = 1
**.ue[69].macCellId = 1
**.ue[69].masterId = 1
**.ue[70].macCellId = 1
**.ue[70].masterId = 1
**.ue[71].macCellId = 1
**.ue[71].masterId = 1
**.ue[72].macCellId = 1
**.ue[72].masterId = 1
**.ue[73].macCellId = 1
**.ue[73].masterId = 1
**.ue[74].macCellId = 1
**.ue[74].masterId = 1
**.ue[75].macCellId = 1
**.ue[75].masterId = 1
**.ue[76].macCellId = 1
**.ue[76].masterId = 1
**.ue[77].macCellId = 1
**.ue[77].masterId = 1
**.ue[78].macCellId = 1
**.ue[78].masterId = 1
**.ue[79].macCellId = 1
**.ue[79].masterId = 1
**.ue[80].macCellId = 1
**.ue[80].masterId = 1
**.ue[81].macCellId = 1
**.ue[81].masterId = 1
**.ue[82].macCellId = 1
**.ue[82].masterId = 1
**.ue[83].macCellId = 1
**.ue[83].masterId = 1
**.ue[84].macCellId = 1
**.ue[84].masterId = 1
**.ue[85].macCellId = 1
**.ue[85].masterId = 1
**.ue[86].macCellId = 1
**.ue[86].masterId = 1
**.ue[87].macCellId = 1
**.ue[87].masterId = 1
**.ue[88].macCellId = 1
**.ue[88].masterId = 1
**.ue[89].macCellId = 1
**.ue[89].masterId = 1
**.ue[90].macCellId = 1
**.ue[90].masterId = 1
**.ue[91].macCellId = 1
**.ue[91].masterId = 1
**.ue[92].macCellId = 1
**.ue[92].masterId = 1
**.ue[93].macCellId = 1
**.ue[93].masterId = 1
**.ue[94].macCellId = 1
**.ue[94].masterId = 1
**.ue[95].macCellId = 1
**.ue[95].masterId = 1
**.ue[96].macCellId = 1
**.ue[96].masterId = 1
**.ue[97].macCellId = 1
**.ue[97].masterId = 1
**.ue[98].macCellId = 1
**.ue[98].masterId = 1
**.ue[99].macCellId = 1
**.ue[99].masterId = 1
**.ue[100].macCellId = 1
**.ue[100].masterId = 1
**.ue[101].macCellId = 1
**.ue[101].masterId = 1
**.ue[102].macCellId = 1
**.ue[102].masterId = 1
**.ue[103].macCellId = 1
**.ue[103].masterId = 1
**.ue[104].macCellId = 1
**.ue[104].masterId = 1
**.ue[105].macCellId = 1
**.ue[105].masterId = 1
**.ue[106].macCellId = 1
**.ue[106].masterId = 1
**.ue[107].macCellId = 1
**.ue[107].masterId = 1
**.ue[108].macCellId = 1
**.ue[108].masterId = 1
**.ue[109].macCellId = 1
**.ue[109].masterId = 1
**.ue[110].macCellId = 1
**.ue[110].masterId = 1
**.ue[111].macCellId = 1
**.ue[111].masterId = 1
**.ue[112].macCellId = 1
**.ue[112].masterId = 1
**.ue[113].macCellId = 1
**.ue[113].masterId = 1
**.ue[114].macCellId = 1
**.ue[114].masterId = 1
**.ue[115].macCellId = 1
**.ue[115].masterId = 1
**.ue[116].macCellId = 1
**.ue[116].masterId = 1
**.ue[117].macCellId = 1
**.ue[117].masterId = 1
**.ue[118].macCellId = 1
**.ue[118].masterId = 1
**.ue[119].macCellId = 1
**.ue[119].masterId = 1

# Scheduler
**.schedulingDisciplineUl = ${sched= "MAXCI"}
**.schedulingDisciplineDl = ${sched}

############### Scenario ###############

# UEs
**.ue[0].cellularNic.channelModel[*].scenario = "URBAN_MACROCELL"
**.ue[1].cellularNic.channelModel[*].scenario = "URBAN_MACROCELL"
**.ue[2].cellularNic.channelModel[*].scenario = "URBAN_MACROCELL"
**.ue[3].cellularNic.channelModel[*].scenario = "URBAN_MACROCELL"
**.ue[4].cellularNic.channelModel[*].scenario = "URBAN_MACROCELL"
**.ue[5].cellularNic.channelModel[*].scenario = "URBAN_MACROCELL"
**.ue[6].cellularNic.channelModel[*].scenario = "URBAN_MACROCELL"
**.ue[7].cellularNic.channelModel[*].scenario = "URBAN_MACROCELL"
**.ue[8].cellularNic.channelModel[*].scenario = "URBAN_MACROCELL"
**.ue[9].cellularNic.channelModel[*].scenario = "URBAN_MACROCELL"
**.ue[10].cellularNic.channelModel[*].scenario = "URBAN_MACROCELL"
**.ue[11].cellularNic.channelModel[*].scenario = "URBAN_MACROCELL"
**.ue[12].cellularNic.channelModel[*].scenario = "URBAN_MACROCELL"
**.ue[13].cellularNic.channelModel[*].scenario = "URBAN_MACROCELL"
**.ue[14].cellularNic.channelModel[*].scenario = "URBAN_MACROCELL"
**.ue[15].cellularNic.channelModel[*].scenario = "URBAN_MACROCELL"
**.ue[16].cellularNic.channelModel[*].scenario = "URBAN_MACROCELL"
**.ue[17].cellularNic.channelModel[*].scenario = "URBAN_MACROCELL"
**.ue[18].cellularNic.channelModel[*].scenario = "URBAN_MACROCELL"
**.ue[19].cellularNic.channelModel[*].scenario = "URBAN_MACROCELL"
**.ue[20].cellularNic.channelModel[*].scenario = "URBAN_MACROCELL"
**.ue[21].cellularNic.channelModel[*].scenario = "URBAN_MACROCELL"
**.ue[22].cellularNic.channelModel[*].scenario = "URBAN_MACROCELL"
**.ue[23].cellularNic.channelModel[*].scenario = "URBAN_MACROCELL"
**.ue[24].cellularNic.channelModel[*].scenario = "URBAN_MACROCELL"
**.ue[25].cellularNic.channelModel[*].scenario = "URBAN_MACROCELL"
**.ue[26].cellularNic.channelModel[*].scenario = "URBAN_MACROCELL"
**.ue[27].cellularNic.channelModel[*].scenario = "URBAN_MACROCELL"
**.ue[28].cellularNic.channelModel[*].scenario = "URBAN_MACROCELL"
**.ue[29].cellularNic.channelModel[*].scenario = "URBAN_MACROCELL"
**.ue[30].cellularNic.channelModel[*].scenario = "URBAN_MACROCELL"
**.ue[31].cellularNic.channelModel[*].scenario = "URBAN_MACROCELL"
**.ue[32].cellularNic.channelModel[*].scenario = "URBAN_MACROCELL"
**.ue[33].cellularNic.channelModel[*].scenario = "URBAN_MACROCELL"
**.ue[34].cellularNic.channelModel[*].scenario = "URBAN_MACROCELL"
**.ue[35].cellularNic.channelModel[*].scenario = "URBAN_MACROCELL"
**.ue[36].cellularNic.channelModel[*].scenario = "URBAN_MACROCELL"
**.ue[37].cellularNic.channelModel[*].scenario = "URBAN_MACROCELL"
**.ue[38].cellularNic.channelModel[*].scenario = "URBAN_MACROCELL"
**.ue[39].cellularNic.channelModel[*].scenario = "URBAN_MACROCELL"
**.ue[40].cellularNic.channelModel[*].scenario = "URBAN_MACROCELL"
**.ue[41].cellularNic.channelModel[*].scenario = "URBAN_MACROCELL"
**.ue[42].cellularNic.channelModel[*].scenario = "URBAN_MACROCELL"
**.ue[43].cellularNic.channelModel[*].scenario = "URBAN_MACROCELL"
**.ue[44].cellularNic.channelModel[*].scenario = "URBAN_MACROCELL"
**.ue[45].cellularNic.channelModel[*].scenario = "URBAN_MACROCELL"
**.ue[46].cellularNic.channelModel[*].scenario = "URBAN_MACROCELL"
**.ue[47].cellularNic.channelModel[*].scenario = "URBAN_MACROCELL"
**.ue[48].cellularNic.channelModel[*].scenario = "URBAN_MACROCELL"
**.ue[49].cellularNic.channelModel[*].scenario = "URBAN_MACROCELL"
**.ue[50].cellularNic.channelModel[*].scenario = "URBAN_MACROCELL"
**.ue[51].cellularNic.channelModel[*].scenario = "URBAN_MACROCELL"
**.ue[52].cellularNic.channelModel[*].scenario = "URBAN_MACROCELL"
**.ue[53].cellularNic.channelModel[*].scenario = "URBAN_MACROCELL"
**.ue[54].cellularNic.channelModel[*].scenario = "URBAN_MACROCELL"
**.ue[55].cellularNic.channelModel[*].scenario = "URBAN_MACROCELL"
**.ue[56].cellularNic.channelModel[*].scenario = "URBAN_MACROCELL"
**.ue[57].cellularNic.channelModel[*].scenario = "URBAN_MACROCELL"
**.ue[58].cellularNic.channelModel[*].scenario = "URBAN_MACROCELL"
**.ue[59].cellularNic.channelModel[*].scenario = "URBAN_MACROCELL"
**.ue[60].cellularNic.channelModel[*].scenario = "URBAN_MACROCELL"
**.ue[61].cellularNic.channelModel[*].scenario = "URBAN_MACROCELL"
**.ue[62].cellularNic.channelModel[*].scenario = "URBAN_MACROCELL"
**.ue[63].cellularNic.channelModel[*].scenario = "URBAN_MACROCELL"
**.ue[64].cellularNic.channelModel[*].scenario = "URBAN_MACROCELL"
**.ue[65].cellularNic.channelModel[*].scenario = "URBAN_MACROCELL"
**.ue[66].cellularNic.channelModel[*].scenario = "URBAN_MACROCELL"
**.ue[67].cellularNic.channelModel[*].scenario = "URBAN_MACROCELL"
**.ue[68].cellularNic.channelModel[*].scenario = "URBAN_MACROCELL"
**.ue[69].cellularNic.channelModel[*].scenario = "URBAN_MACROCELL"
**.ue[70].cellularNic.channelModel[*].scenario = "URBAN_MACROCELL"
**.ue[71].cellularNic.channelModel[*].scenario = "URBAN_MACROCELL"
**.ue[72].cellularNic.channelModel[*].scenario = "URBAN_MACROCELL"
**.ue[73].cellularNic.channelModel[*].scenario = "URBAN_MACROCELL"
**.ue[74].cellularNic.channelModel[*].scenario = "URBAN_MACROCELL"
**.ue[75].cellularNic.channelModel[*].scenario = "URBAN_MACROCELL"
**.ue[76].cellularNic.channelModel[*].scenario = "URBAN_MACROCELL"
**.ue[77].cellularNic.channelModel[*].scenario = "URBAN_MACROCELL"
**.ue[78].cellularNic.channelModel[*].scenario = "URBAN_MACROCELL"
**.ue[79].cellularNic.channelModel[*].scenario = "URBAN_MACROCELL"
**.ue[80].cellularNic.channelModel[*].scenario = "URBAN_MACROCELL"
**.ue[81].cellularNic.channelModel[*].scenario = "URBAN_MACROCELL"
**.ue[82].cellularNic.channelModel[*].scenario = "URBAN_MACROCELL"
**.ue[83].cellularNic.channelModel[*].scenario = "URBAN_MACROCELL"
**.ue[84].cellularNic.channelModel[*].scenario = "URBAN_MACROCELL"
**.ue[85].cellularNic.channelModel[*].scenario = "URBAN_MACROCELL"
**.ue[86].cellularNic.channelModel[*].scenario = "URBAN_MACROCELL"
**.ue[87].cellularNic.channelModel[*].scenario = "URBAN_MACROCELL"
**.ue[88].cellularNic.channelModel[*].scenario = "URBAN_MACROCELL"
**.ue[89].cellularNic.channelModel[*].scenario = "URBAN_MACROCELL"
**.ue[90].cellularNic.channelModel[*].scenario = "URBAN_MACROCELL"
**.ue[91].cellularNic.channelModel[*].scenario = "URBAN_MACROCELL"
**.ue[92].cellularNic.channelModel[*].scenario = "URBAN_MACROCELL"
**.ue[93].cellularNic.channelModel[*].scenario = "URBAN_MACROCELL"
**.ue[94].cellularNic.channelModel[*].scenario = "URBAN_MACROCELL"
**.ue[95].cellularNic.channelModel[*].scenario = "URBAN_MACROCELL"
**.ue[96].cellularNic.channelModel[*].scenario = "URBAN_MACROCELL"
**.ue[97].cellularNic.channelModel[*].scenario = "URBAN_MACROCELL"
**.ue[98].cellularNic.channelModel[*].scenario = "URBAN_MACROCELL"
**.ue[99].cellularNic.channelModel[*].scenario = "URBAN_MACROCELL"
**.ue[100].cellularNic.channelModel[*].scenario = "URBAN_MACROCELL"
**.ue[101].cellularNic.channelModel[*].scenario = "URBAN_MACROCELL"
**.ue[102].cellularNic.channelModel[*].scenario = "URBAN_MACROCELL"
**.ue[103].cellularNic.channelModel[*].scenario = "URBAN_MACROCELL"
**.ue[104].cellularNic.channelModel[*].scenario = "URBAN_MACROCELL"
**.ue[105].cellularNic.channelModel[*].scenario = "URBAN_MACROCELL"
**.ue[106].cellularNic.channelModel[*].scenario = "URBAN_MACROCELL"
**.ue[107].cellularNic.channelModel[*].scenario = "URBAN_MACROCELL"
**.ue[108].cellularNic.channelModel[*].scenario = "URBAN_MACROCELL"
**.ue[109].cellularNic.channelModel[*].scenario = "URBAN_MACROCELL"
**.ue[110].cellularNic.channelModel[*].scenario = "URBAN_MACROCELL"
**.ue[111].cellularNic.channelModel[*].scenario = "URBAN_MACROCELL"
**.ue[112].cellularNic.channelModel[*].scenario = "URBAN_MACROCELL"
**.ue[113].cellularNic.channelModel[*].scenario = "URBAN_MACROCELL"
**.ue[114].cellularNic.channelModel[*].scenario = "URBAN_MACROCELL"
**.ue[115].cellularNic.channelModel[*].scenario = "URBAN_MACROCELL"
**.ue[116].cellularNic.channelModel[*].scenario = "URBAN_MACROCELL"
**.ue[117].cellularNic.channelModel[*].scenario = "URBAN_MACROCELL"
**.ue[118].cellularNic.channelModel[*].scenario = "URBAN_MACROCELL"
**.ue[119].cellularNic.channelModel[*].scenario = "URBAN_MACROCELL"

# UEs

*.ue[*].mobilityType = "LinearMobility"
*.ue[0].mobility.initialX = 1085.003874868526m
*.ue[0].mobility.initialY = 764.3356242323689m
*.ue[0].mobility.initialZ = 0m
*.ue[0].mobility.initFromDisplayString = false
*.ue[1].mobility.initialX = 6500.559368514123m
*.ue[1].mobility.initialY = 563.9713386630999m
*.ue[1].mobility.initialZ = 0m
*.ue[1].mobility.initFromDisplayString = false
*.ue[2].mobility.initialX = 7053.378920436487m
*.ue[2].mobility.initialY = 697.6945552725147m
*.ue[2].mobility.initialZ = 0m
*.ue[2].mobility.initFromDisplayString = false
*.ue[3].mobility.initialX = 6510.4170198037455m
*.ue[3].mobility.initialY = 536.8599278389815m
*.ue[3].mobility.initialZ = 0m
*.ue[3].mobility.initFromDisplayString = false
*.ue[4].mobility.initialX = 7046.235991682204m
*.ue[4].mobility.initialY = 452.91782072152137m
*.ue[4].mobility.initialZ = 0m
*.ue[4].mobility.initFromDisplayString = false
*.ue[5].mobility.initialX = 6490.378880456669m
*.ue[5].mobility.initialY = 527.8237262497289m
*.ue[5].mobility.initialZ = 0m
*.ue[5].mobility.initFromDisplayString = false
*.ue[6].mobility.initialX = 6834.089449489185m
*.ue[6].mobility.initialY = 428.5850881256307m
*.ue[6].mobility.initialZ = 0m
*.ue[6].mobility.initFromDisplayString = false
*.ue[7].mobility.initialX = 6509.272491923084m
*.ue[7].mobility.initialY = 502.48033203194404m
*.ue[7].mobility.initialZ = 0m
*.ue[7].mobility.initFromDisplayString = false
*.ue[8].mobility.initialX = 778.0721163571072m
*.ue[8].mobility.initialY = 1255.2603052288937m
*.ue[8].mobility.initialZ = 0m
*.ue[8].mobility.initFromDisplayString = false
*.ue[9].mobility.initialX = 716.7596052006176m
*.ue[9].mobility.initialY = 988.1232259132066m
*.ue[9].mobility.initialZ = 0m
*.ue[9].mobility.initFromDisplayString = false
*.ue[10].mobility.initialX = 517.5752897694642m
*.ue[10].mobility.initialY = 1304.9111036474355m
*.ue[10].mobility.initialZ = 0m
*.ue[10].mobility.initFromDisplayString = false
*.ue[11].mobility.initialX = 623.4405251187136m
*.ue[11].mobility.initialY = 1362.4056909462324m
*.ue[11].mobility.initialZ = 0m
*.ue[11].mobility.initFromDisplayString = false
*.ue[12].mobility.initialX = 751.2655823400523m
*.ue[12].mobility.initialY = 1438.2073630661039m
*.ue[12].mobility.initialZ = 0m
*.ue[12].mobility.initFromDisplayString = false
*.ue[13].mobility.initialX = 795.7585424113179m
*.ue[13].mobility.initialY = 1100.6445644533312m
*.ue[13].mobility.initialZ = 0m
*.ue[13].mobility.initFromDisplayString = false
*.ue[14].mobility.initialX = 1075.36200165384m
*.ue[14].mobility.initialY = 1281.263815578321m
*.ue[14].mobility.initialZ = 0m
*.ue[14].mobility.initFromDisplayString = false
*.ue[15].mobility.initialX = 1040.7352241615904m
*.ue[15].mobility.initialY = 1292.691563201315m
*.ue[15].mobility.initialZ = 0m
*.ue[15].mobility.initFromDisplayString = false
*.ue[16].mobility.initialX = 1139.6639285562023m
*.ue[16].mobility.initialY = 1288.426033491997m
*.ue[16].mobility.initialZ = 0m
*.ue[16].mobility.initFromDisplayString = false
*.ue[17].mobility.initialX = 1085.5456980870883m
*.ue[17].mobility.initialY = 1216.5214502336742m
*.ue[17].mobility.initialZ = 0m
*.ue[17].mobility.initFromDisplayString = false
*.ue[18].mobility.initialX = 1046.457019374105m
*.ue[18].mobility.initialY = 1303.6014081143937m
*.ue[18].mobility.initialZ = 0m
*.ue[18].mobility.initFromDisplayString = false
*.ue[19].mobility.initialX = 1050.0300801724336m
*.ue[19].mobility.initialY = 1231.7152305325685m
*.ue[19].mobility.initialZ = 0m
*.ue[19].mobility.initFromDisplayString = false
*.ue[20].mobility.initialX = 1119.9810309530167m
*.ue[20].mobility.initialY = 1288.662094642823m
*.ue[20].mobility.initialZ = 0m
*.ue[20].mobility.initFromDisplayString = false
*.ue[21].mobility.initialX = 1041.4639928426543m
*.ue[21].mobility.initialY = 1224.0931235622688m
*.ue[21].mobility.initialZ = 0m
*.ue[21].mobility.initFromDisplayString = false
*.ue[22].mobility.initialX = 1059.7410753566262m
*.ue[22].mobility.initialY = 1285.2333060174567m
*.ue[22].mobility.initialZ = 0m
*.ue[22].mobility.initFromDisplayString = false
*.ue[23].mobility.initialX = 1063.6098556002291m
*.ue[23].mobility.initialY = 1265.1490652354391m
*.ue[23].mobility.initialZ = 0m
*.ue[23].mobility.initFromDisplayString = false
*.ue[24].mobility.initialX = 1069.5865256407844m
*.ue[24].mobility.initialY = 1229.7893709358991m
*.ue[24].mobility.initialZ = 0m
*.ue[24].mobility.initFromDisplayString = false
*.ue[25].mobility.initialX = 1030.9445535566724m
*.ue[25].mobility.initialY = 1230.0489569082965m
*.ue[25].mobility.initialZ = 0m
*.ue[25].mobility.initFromDisplayString = false
*.ue[26].mobility.initialX = 1012.4750300830003m
*.ue[26].mobility.initialY = 1303.9707402498875m
*.ue[26].mobility.initialZ = 0m
*.ue[26].mobility.initFromDisplayString = false
*.ue[27].mobility.initialX = 1076.767202970427m
*.ue[27].mobility.initialY = 1310.8903842334885m
*.ue[27].mobility.initialZ = 0m
*.ue[27].mobility.initFromDisplayString = false
*.ue[28].mobility.initialX = 1113.2154967661513m
*.ue[28].mobility.initialY = 1308.7736768372372m
*.ue[28].mobility.initialZ = 0m
*.ue[28].mobility.initFromDisplayString = false
*.ue[29].mobility.initialX = 1124.0027120247644m
*.ue[29].mobility.initialY = 1282.6257594695855m
*.ue[29].mobility.initialZ = 0m
*.ue[29].mobility.initFromDisplayString = false
*.ue[30].mobility.initialX = 1122.312437606957m
*.ue[30].mobility.initialY = 1276.057363408732m
*.ue[30].mobility.initialZ = 0m
*.ue[30].mobility.initFromDisplayString = false
*.ue[31].mobility.initialX = 1054.5259079391908m
*.ue[31].mobility.initialY = 1313.1605640880443m
*.ue[31].mobility.initialZ = 0m
*.ue[31].mobility.initFromDisplayString = false
*.ue[32].mobility.initialX = 1139.4349215623877m
*.ue[32].mobility.initialY = 1303.2139549356627m
*.ue[32].mobility.initialZ = 0m
*.ue[32].mobility.initFromDisplayString = false
*.ue[33].mobility.initialX = 1126.9432110945543m
*.ue[33].mobility.initialY = 1251.542466971384m
*.ue[33].mobility.initialZ = 0m
*.ue[33].mobility.initFromDisplayString = false
*.ue[34].mobility.initialX = 1009.278537056432m
*.ue[34].mobility.initialY = 1272.7353093934505m
*.ue[34].mobility.initialZ = 0m
*.ue[34].mobility.initFromDisplayString = false
*.ue[35].mobility.initialX = 1110.8525220951165m
*.ue[35].mobility.initialY = 1210.704161017153m
*.ue[35].mobility.initialZ = 0m
*.ue[35].mobility.initFromDisplayString = false
*.ue[36].mobility.initialX = 1106.5305228402053m
*.ue[36].mobility.initialY = 1250.1724717909274m
*.ue[36].mobility.initialZ = 0m
*.ue[36].mobility.initFromDisplayString = false
*.ue[37].mobility.initialX = 1064.7566373882478m
*.ue[37].mobility.initialY = 1342.0034573516446m
*.ue[37].mobility.initialZ = 0m
*.ue[37].mobility.initFromDisplayString = false
*.ue[38].mobility.initialX = 1111.3374599255424m
*.ue[38].mobility.initialY = 1253.7573077060676m
*.ue[38].mobility.initialZ = 0m
*.ue[38].mobility.initFromDisplayString = false
*.ue[39].mobility.initialX = 1064.1912090718004m
*.ue[39].mobility.initialY = 1308.5288925054067m
*.ue[39].mobility.initialZ = 0m
*.ue[39].mobility.initFromDisplayString = false
*.ue[40].mobility.initialX = 905.8606789769182m
*.ue[40].mobility.initialY = 1224.191091670286m
*.ue[40].mobility.initialZ = 0m
*.ue[40].mobility.initFromDisplayString = false
*.ue[41].mobility.initialX = 1100.7029607950828m
*.ue[41].mobility.initialY = 1342.1921029312211m
*.ue[41].mobility.initialZ = 0m
*.ue[41].mobility.initFromDisplayString = false
*.ue[42].mobility.initialX = 1038.2521001282819m
*.ue[42].mobility.initialY = 1270.5586964188415m
*.ue[42].mobility.initialZ = 0m
*.ue[42].mobility.initFromDisplayString = false
*.ue[43].mobility.initialX = 936.3611852614915m
*.ue[43].mobility.initialY = 807.6309983438572m
*.ue[43].mobility.initialZ = 0m
*.ue[43].mobility.initFromDisplayString = false
*.ue[44].mobility.initialX = 1075.3413089823418m
*.ue[44].mobility.initialY = 1341.7929773532576m
*.ue[44].mobility.initialZ = 0m
*.ue[44].mobility.initFromDisplayString = false
*.ue[45].mobility.initialX = 1085.1183537613042m
*.ue[45].mobility.initialY = 1323.6085970496558m
*.ue[45].mobility.initialZ = 0m
*.ue[45].mobility.initFromDisplayString = false
*.ue[46].mobility.initialX = 1094.70814040364m
*.ue[46].mobility.initialY = 1215.9439210375006m
*.ue[46].mobility.initialZ = 0m
*.ue[46].mobility.initFromDisplayString = false
*.ue[47].mobility.initialX = 1101.1617097958451m
*.ue[47].mobility.initialY = 1288.0692515333276m
*.ue[47].mobility.initialZ = 0m
*.ue[47].mobility.initFromDisplayString = false
*.ue[48].mobility.initialX = 1049.346969299303m
*.ue[48].mobility.initialY = 1315.3753311480914m
*.ue[48].mobility.initialZ = 0m
*.ue[48].mobility.initFromDisplayString = false
*.ue[49].mobility.initialX = 1104.7498757354188m
*.ue[49].mobility.initialY = 1337.6344129327474m
*.ue[49].mobility.initialZ = 0m
*.ue[49].mobility.initFromDisplayString = false
*.ue[50].mobility.initialX = 1101.678378599603m
*.ue[50].mobility.initialY = 1236.657155420156m
*.ue[50].mobility.initialZ = 0m
*.ue[50].mobility.initFromDisplayString = false
*.ue[51].mobility.initialX = 1126.3079092449238m
*.ue[51].mobility.initialY = 1326.863524919599m
*.ue[51].mobility.initialZ = 0m
*.ue[51].mobility.initFromDisplayString = false
*.ue[52].mobility.initialX = 1093.1338054378402m
*.ue[52].mobility.initialY = 1027.474872187314m
*.ue[52].mobility.initialZ = 0m
*.ue[52].mobility.initFromDisplayString = false
*.ue[53].mobility.initialX = 1057.4551773700973m
*.ue[53].mobility.initialY = 1269.9199812450709m
*.ue[53].mobility.initialZ = 0m
*.ue[53].mobility.initFromDisplayString = false
*.ue[54].mobility.initialX = 1044.5001989634886m
*.ue[54].mobility.initialY = 1293.600730540917m
*.ue[54].mobility.initialZ = 0m
*.ue[54].mobility.initFromDisplayString = false
*.ue[55].mobility.initialX = 1119.0568084829752m
*.ue[55].mobility.initialY = 1252.41861483057m
*.ue[55].mobility.initialZ = 0m
*.ue[55].mobility.initFromDisplayString = false
*.ue[56].mobility.initialX = 1046.5408985845247m
*.ue[56].mobility.initialY = 1132.94464089295m
*.ue[56].mobility.initialZ = 0m
*.ue[56].mobility.initFromDisplayString = false
*.ue[57].mobility.initialX = 1124.6237306751673m
*.ue[57].mobility.initialY = 1292.9862524026378m
*.ue[57].mobility.initialZ = 0m
*.ue[57].mobility.initFromDisplayString = false
*.ue[58].mobility.initialX = 1090.0319209024474m
*.ue[58].mobility.initialY = 1345.1383655906702m
*.ue[58].mobility.initialZ = 0m
*.ue[58].mobility.initFromDisplayString = false
*.ue[59].mobility.initialX = 1088.0253801354302m
*.ue[59].mobility.initialY = 1214.9697099972161m
*.ue[59].mobility.initialZ = 0m
*.ue[59].mobility.initFromDisplayString = false
*.ue[60].mobility.initialX = 1048.0191229765544m
*.ue[60].mobility.initialY = 1306.0791999115268m
*.ue[60].mobility.initialZ = 0m
*.ue[60].mobility.initFromDisplayString = false
*.ue[61].mobility.initialX = 1053.2029078192045m
*.ue[61].mobility.initialY = 1294.5903613515004m
*.ue[61].mobility.initialZ = 0m
*.ue[61].mobility.initFromDisplayString = false
*.ue[62].mobility.initialX = 1105.200670741326m
*.ue[62].mobility.initialY = 1288.3534671615048m
*.ue[62].mobility.initialZ = 0m
*.ue[62].mobility.initFromDisplayString = false
*.ue[63].mobility.initialX = 1068.3077466783097m
*.ue[63].mobility.initialY = 1327.01377033144m
*.ue[63].mobility.initialZ = 0m
*.ue[63].mobility.initFromDisplayString = false
*.ue[64].mobility.initialX = 1090.4627299608494m
*.ue[64].mobility.initialY = 1314.97918129885m
*.ue[64].mobility.initialZ = 0m
*.ue[64].mobility.initFromDisplayString = false
*.ue[65].mobility.initialX = 1089.5063534335166m
*.ue[65].mobility.initialY = 1237.0330519273125m
*.ue[65].mobility.initialZ = 0m
*.ue[65].mobility.initFromDisplayString = false
*.ue[66].mobility.initialX = 1049.3318373573654m
*.ue[66].mobility.initialY = 1316.4085042749452m
*.ue[66].mobility.initialZ = 0m
*.ue[66].mobility.initFromDisplayString = false
*.ue[67].mobility.initialX = 6688.147799064893m
*.ue[67].mobility.initialY = 1045.733879213254m
*.ue[67].mobility.initialZ = 0m
*.ue[67].mobility.initFromDisplayString = false