#Function: ilp_fixed
#Parameters: 
#  filename = '../Network_CCOpMv/_5G/simulations/ilp_fixed_sliced.ini'
#  seed = 123
#  Map height distance = 4000
#  Map width distance = 4000
#  Region side distance = 400
#  Extra = Using 1 macros with 60 ues each.
[General]
sim-time-limit = 10s

############### Statistics ###############
output-scalar-file = ${resultdir}/${configname}/${repetition}.sca
output-vector-file = ${resultdir}/${configname}/${repetition}.vec
**.vector-recording = false
eventlog-file = ${resultdir}/${configname}/${repetition}.elog
seed-set = ${repetition}

[Config ilp_fixed_10]
network = _5G.networks.ILPFixedNet
sim-time-limit = 1s
repeat = 5
seed-set = ${repetition}
num-rngs = 2
seed-1-mt = 123

**.eNB*.cellularNic.channelModel[*].*.vector-recording = true
output-scalar-file = ${resultdir}/${configname}/10-${RBs}-${repetition}-${Slice}.sca
output-vector-file = ${resultdir}/${configname}/10-${RBs}-${repetition}-${Slice}.vec
**.vector-recording = false
eventlog-file = ${resultdir}/${configname}/10-${RBs}-${repetition}-${Slice}.elog

############### Snapshots ###############
snapshot-file = ../../../Functions/${configname}-RBs_${RBs}-Slice_${Slice}-10-${repetition}.sna
**.snapshotter.snapshot = false
**.snapshotter.delay = 1.0

############### Transmission Power ###############
**.ueTxPower = 24
**.eNodeBTxPower = 46
**.microTxPower = 30
**.cellularNic.phy.txDirection = "OMNI"

############### Channel Control ###############
**.numComponentCarriers = 1
*.carrierAggregation.componentCarrier[0].carrierFrequency = 0.7GHz

############### Channel Model ###############
**.cellularNic.LteChannelModelType = "MoreInfoChannelModel"
**.cellularNic.channelModel[*].building_height = 20
**.cellularNic.channelModel[*].nodeb_height = 25
**.cellularNic.channelModel[*].ue_height = 1.5
**.cellularNic.channelModel[*].street_wide = 20
**.cellularNic.channelModel[*].fading_type = "JAKES"
**.cellularNic.channelModel[*].extCell_interference = false
**.cellularNic.channelModel[*].antennGainEnB = 18
**.cellularNic.channelModel[*].antennGainMicro = 5
**.cellularNic.channelModel[*].antennaGainUe = 0
**.cellularNic.channelModel[*].bs_noise_figure = 5
**.cellularNic.channelModel[*].cable_loss = 2
**.cellularNic.channelModel[*].componentCarrierIndex = 0
**.cellularNic.channelModel[*].correlation_distance = 50
**.cellularNic.channelModel[*].d2d_interference = true
**.cellularNic.channelModel[*].delay_rms = 363e-9
**.cellularNic.channelModel[*].downlink_interference = false
**.cellularNic.channelModel[*].dynamic_los = false
**.cellularNic.channelModel[*].enable_extCell_los = true
**.cellularNic.channelModel[*].fading = true
**.cellularNic.channelModel[*].fading_paths = 6
**.cellularNic.channelModel[*].fixed_los = false
**.cellularNic.channelModel[*].harqReduction = 0.2
**.cellularNic.channelModel[*].inside_building = false
**.cellularNic.channelModel[*].lambdaMaxTh = 0.2
**.cellularNic.channelModel[*].lambdaMinTh = 0.02
**.cellularNic.channelModel[*].lambdaRatioTh = 20
**.cellularNic.channelModel[*].rsrqScale = 1.0
**.cellularNic.channelModel[*].rsrqShift = 22
**.cellularNic.channelModel[*].shadowing = true
**.cellularNic.channelModel[*].targetBler = 0.01
**.cellularNic.channelModel[*].thermalNoise = -104.5
**.cellularNic.channelModel[*].tolerateMaxDistViolation = true
**.cellularNic.channelModel[*].ue_noise_figure = 7
**.cellularNic.channelModel[*].uplink_interference = false
**.cellularNic.channelModel[*].useRsrqFromLog = false
**.cellularNic.channelModel[*].useTorus = false
**.cellularNic.channelModel[*].num_slice = ${Slice= 0, 1}

############### Resource Blocks ###############
**.numBands = ${RBs= 6, 100}

############### UEs ###############
**.numUe = 60

# Conecting UEs to eNodeB
**.ue[0].macCellId = ${1, 1 ! Slice}
**.ue[0].masterId = ${1, 1 ! Slice}
**.ue[1].macCellId = ${1, 1 ! Slice}
**.ue[1].masterId = ${1, 1 ! Slice}
**.ue[2].macCellId = ${1, 1 ! Slice}
**.ue[2].masterId = ${1, 1 ! Slice}
**.ue[3].macCellId = ${1, 1 ! Slice}
**.ue[3].masterId = ${1, 1 ! Slice}
**.ue[4].macCellId = ${1, 1 ! Slice}
**.ue[4].masterId = ${1, 1 ! Slice}
**.ue[5].macCellId = ${1, 1 ! Slice}
**.ue[5].masterId = ${1, 1 ! Slice}
**.ue[6].macCellId = ${1, 1 ! Slice}
**.ue[6].masterId = ${1, 1 ! Slice}
**.ue[7].macCellId = ${1, 1 ! Slice}
**.ue[7].masterId = ${1, 1 ! Slice}
**.ue[8].macCellId = ${1, 1 ! Slice}
**.ue[8].masterId = ${1, 1 ! Slice}
**.ue[9].macCellId = ${1, 1 ! Slice}
**.ue[9].masterId = ${1, 1 ! Slice}
**.ue[10].macCellId = ${1, 1 ! Slice}
**.ue[10].masterId = ${1, 1 ! Slice}
**.ue[11].macCellId = ${1, 1 ! Slice}
**.ue[11].masterId = ${1, 1 ! Slice}
**.ue[12].macCellId = ${1, 1 ! Slice}
**.ue[12].masterId = ${1, 1 ! Slice}
**.ue[13].macCellId = ${1, 1 ! Slice}
**.ue[13].masterId = ${1, 1 ! Slice}
**.ue[14].macCellId = ${1, 1 ! Slice}
**.ue[14].masterId = ${1, 1 ! Slice}
**.ue[15].macCellId = ${1, 1 ! Slice}
**.ue[15].masterId = ${1, 1 ! Slice}
**.ue[16].macCellId = ${1, 1 ! Slice}
**.ue[16].masterId = ${1, 1 ! Slice}
**.ue[17].macCellId = ${1, 1 ! Slice}
**.ue[17].masterId = ${1, 1 ! Slice}
**.ue[18].macCellId = ${1, 1 ! Slice}
**.ue[18].masterId = ${1, 1 ! Slice}
**.ue[19].macCellId = ${1, 1 ! Slice}
**.ue[19].masterId = ${1, 1 ! Slice}
**.ue[20].macCellId = ${1, 1 ! Slice}
**.ue[20].masterId = ${1, 1 ! Slice}
**.ue[21].macCellId = ${1, 1 ! Slice}
**.ue[21].masterId = ${1, 1 ! Slice}
**.ue[22].macCellId = ${1, 1 ! Slice}
**.ue[22].masterId = ${1, 1 ! Slice}
**.ue[23].macCellId = ${1, 1 ! Slice}
**.ue[23].masterId = ${1, 1 ! Slice}
**.ue[24].macCellId = ${1, 1 ! Slice}
**.ue[24].masterId = ${1, 1 ! Slice}
**.ue[25].macCellId = ${1, 1 ! Slice}
**.ue[25].masterId = ${1, 1 ! Slice}
**.ue[26].macCellId = ${1, 1 ! Slice}
**.ue[26].masterId = ${1, 1 ! Slice}
**.ue[27].macCellId = ${1, 1 ! Slice}
**.ue[27].masterId = ${1, 1 ! Slice}
**.ue[28].macCellId = ${1, 1 ! Slice}
**.ue[28].masterId = ${1, 1 ! Slice}
**.ue[29].macCellId = ${1, 1 ! Slice}
**.ue[29].masterId = ${1, 1 ! Slice}
**.ue[30].macCellId = ${1, 1 ! Slice}
**.ue[30].masterId = ${1, 1 ! Slice}
**.ue[31].macCellId = ${1, 1 ! Slice}
**.ue[31].masterId = ${1, 1 ! Slice}
**.ue[32].macCellId = ${1, 1 ! Slice}
**.ue[32].masterId = ${1, 1 ! Slice}
**.ue[33].macCellId = ${1, 1 ! Slice}
**.ue[33].masterId = ${1, 1 ! Slice}
**.ue[34].macCellId = ${1, 1 ! Slice}
**.ue[34].masterId = ${1, 1 ! Slice}
**.ue[35].macCellId = ${1, 1 ! Slice}
**.ue[35].masterId = ${1, 1 ! Slice}
**.ue[36].macCellId = ${1, 1 ! Slice}
**.ue[36].masterId = ${1, 1 ! Slice}
**.ue[37].macCellId = ${1, 1 ! Slice}
**.ue[37].masterId = ${1, 1 ! Slice}
**.ue[38].macCellId = ${1, 1 ! Slice}
**.ue[38].masterId = ${1, 1 ! Slice}
**.ue[39].macCellId = ${1, 1 ! Slice}
**.ue[39].masterId = ${1, 1 ! Slice}
**.ue[40].macCellId = ${1, 1 ! Slice}
**.ue[40].masterId = ${1, 1 ! Slice}
**.ue[41].macCellId = ${1, 1 ! Slice}
**.ue[41].masterId = ${1, 1 ! Slice}
**.ue[42].macCellId = ${1, 1 ! Slice}
**.ue[42].masterId = ${1, 1 ! Slice}
**.ue[43].macCellId = ${1, 1 ! Slice}
**.ue[43].masterId = ${1, 1 ! Slice}
**.ue[44].macCellId = ${1, 1 ! Slice}
**.ue[44].masterId = ${1, 1 ! Slice}
**.ue[45].macCellId = ${1, 1 ! Slice}
**.ue[45].masterId = ${1, 1 ! Slice}
**.ue[46].macCellId = ${1, 1 ! Slice}
**.ue[46].masterId = ${1, 1 ! Slice}
**.ue[47].macCellId = ${1, 1 ! Slice}
**.ue[47].masterId = ${1, 1 ! Slice}
**.ue[48].macCellId = ${1, 1 ! Slice}
**.ue[48].masterId = ${1, 1 ! Slice}
**.ue[49].macCellId = ${1, 1 ! Slice}
**.ue[49].masterId = ${1, 1 ! Slice}
**.ue[50].macCellId = ${1, 1 ! Slice}
**.ue[50].masterId = ${1, 1 ! Slice}
**.ue[51].macCellId = ${1, 1 ! Slice}
**.ue[51].masterId = ${1, 1 ! Slice}
**.ue[52].macCellId = ${1, 1 ! Slice}
**.ue[52].masterId = ${1, 1 ! Slice}
**.ue[53].macCellId = ${1, 1 ! Slice}
**.ue[53].masterId = ${1, 1 ! Slice}
**.ue[54].macCellId = ${1, 1 ! Slice}
**.ue[54].masterId = ${1, 1 ! Slice}
**.ue[55].macCellId = ${1, 1 ! Slice}
**.ue[55].masterId = ${1, 1 ! Slice}
**.ue[56].macCellId = ${1, 1 ! Slice}
**.ue[56].masterId = ${1, 1 ! Slice}
**.ue[57].macCellId = ${1, 1 ! Slice}
**.ue[57].masterId = ${1, 1 ! Slice}
**.ue[58].macCellId = ${1, 1 ! Slice}
**.ue[58].masterId = ${1, 1 ! Slice}
**.ue[59].macCellId = ${1, 1 ! Slice}
**.ue[59].masterId = ${1, 1 ! Slice}

# Scheduler
**.schedulingDisciplineUl = ${sched= "MAXCI"}
**.schedulingDisciplineDl = ${sched}

############### Scenario ###############

# eNodeBs
**.eNB0.cellularNic.channelModel[*].scenario = "URBAN_MACROCELL"

# UEs
**.ue[0].cellularNic.channelModel[*].scenario = "URBAN_MACROCELL"
**.ue[1].cellularNic.channelModel[*].scenario = "URBAN_MACROCELL"
**.ue[2].cellularNic.channelModel[*].scenario = "URBAN_MACROCELL"
**.ue[3].cellularNic.channelModel[*].scenario = "URBAN_MACROCELL"
**.ue[4].cellularNic.channelModel[*].scenario = "URBAN_MACROCELL"
**.ue[5].cellularNic.channelModel[*].scenario = "URBAN_MACROCELL"
**.ue[6].cellularNic.channelModel[*].scenario = "URBAN_MACROCELL"
**.ue[7].cellularNic.channelModel[*].scenario = "URBAN_MACROCELL"
**.ue[8].cellularNic.channelModel[*].scenario = "URBAN_MACROCELL"
**.ue[9].cellularNic.channelModel[*].scenario = "URBAN_MACROCELL"
**.ue[10].cellularNic.channelModel[*].scenario = "URBAN_MACROCELL"
**.ue[11].cellularNic.channelModel[*].scenario = "URBAN_MACROCELL"
**.ue[12].cellularNic.channelModel[*].scenario = "URBAN_MACROCELL"
**.ue[13].cellularNic.channelModel[*].scenario = "URBAN_MACROCELL"
**.ue[14].cellularNic.channelModel[*].scenario = "URBAN_MACROCELL"
**.ue[15].cellularNic.channelModel[*].scenario = "URBAN_MACROCELL"
**.ue[16].cellularNic.channelModel[*].scenario = "URBAN_MACROCELL"
**.ue[17].cellularNic.channelModel[*].scenario = "URBAN_MACROCELL"
**.ue[18].cellularNic.channelModel[*].scenario = "URBAN_MACROCELL"
**.ue[19].cellularNic.channelModel[*].scenario = "URBAN_MACROCELL"
**.ue[20].cellularNic.channelModel[*].scenario = "URBAN_MACROCELL"
**.ue[21].cellularNic.channelModel[*].scenario = "URBAN_MACROCELL"
**.ue[22].cellularNic.channelModel[*].scenario = "URBAN_MACROCELL"
**.ue[23].cellularNic.channelModel[*].scenario = "URBAN_MACROCELL"
**.ue[24].cellularNic.channelModel[*].scenario = "URBAN_MACROCELL"
**.ue[25].cellularNic.channelModel[*].scenario = "URBAN_MACROCELL"
**.ue[26].cellularNic.channelModel[*].scenario = "URBAN_MACROCELL"
**.ue[27].cellularNic.channelModel[*].scenario = "URBAN_MACROCELL"
**.ue[28].cellularNic.channelModel[*].scenario = "URBAN_MACROCELL"
**.ue[29].cellularNic.channelModel[*].scenario = "URBAN_MACROCELL"
**.ue[30].cellularNic.channelModel[*].scenario = "URBAN_MACROCELL"
**.ue[31].cellularNic.channelModel[*].scenario = "URBAN_MACROCELL"
**.ue[32].cellularNic.channelModel[*].scenario = "URBAN_MACROCELL"
**.ue[33].cellularNic.channelModel[*].scenario = "URBAN_MACROCELL"
**.ue[34].cellularNic.channelModel[*].scenario = "URBAN_MACROCELL"
**.ue[35].cellularNic.channelModel[*].scenario = "URBAN_MACROCELL"
**.ue[36].cellularNic.channelModel[*].scenario = "URBAN_MACROCELL"
**.ue[37].cellularNic.channelModel[*].scenario = "URBAN_MACROCELL"
**.ue[38].cellularNic.channelModel[*].scenario = "URBAN_MACROCELL"
**.ue[39].cellularNic.channelModel[*].scenario = "URBAN_MACROCELL"
**.ue[40].cellularNic.channelModel[*].scenario = "URBAN_MACROCELL"
**.ue[41].cellularNic.channelModel[*].scenario = "URBAN_MACROCELL"
**.ue[42].cellularNic.channelModel[*].scenario = "URBAN_MACROCELL"
**.ue[43].cellularNic.channelModel[*].scenario = "URBAN_MACROCELL"
**.ue[44].cellularNic.channelModel[*].scenario = "URBAN_MACROCELL"
**.ue[45].cellularNic.channelModel[*].scenario = "URBAN_MACROCELL"
**.ue[46].cellularNic.channelModel[*].scenario = "URBAN_MACROCELL"
**.ue[47].cellularNic.channelModel[*].scenario = "URBAN_MACROCELL"
**.ue[48].cellularNic.channelModel[*].scenario = "URBAN_MACROCELL"
**.ue[49].cellularNic.channelModel[*].scenario = "URBAN_MACROCELL"
**.ue[50].cellularNic.channelModel[*].scenario = "URBAN_MACROCELL"
**.ue[51].cellularNic.channelModel[*].scenario = "URBAN_MACROCELL"
**.ue[52].cellularNic.channelModel[*].scenario = "URBAN_MACROCELL"
**.ue[53].cellularNic.channelModel[*].scenario = "URBAN_MACROCELL"
**.ue[54].cellularNic.channelModel[*].scenario = "URBAN_MACROCELL"
**.ue[55].cellularNic.channelModel[*].scenario = "URBAN_MACROCELL"
**.ue[56].cellularNic.channelModel[*].scenario = "URBAN_MACROCELL"
**.ue[57].cellularNic.channelModel[*].scenario = "URBAN_MACROCELL"
**.ue[58].cellularNic.channelModel[*].scenario = "URBAN_MACROCELL"
**.ue[59].cellularNic.channelModel[*].scenario = "URBAN_MACROCELL"

############### Mobility ###############

# eNodeB
*.eNB0.mobility.initialX = 2200.0m
*.eNB0.mobility.initialY = 1800.0m
*.eNB0.mobility.initialZ = 0m
*.eNB0.mobility.initFromDisplayString = false
*.eNB*.mobility.constraintAreaMaxX = 4000 m
*.eNB*.mobility.constraintAreaMaxY = 4000 m
*.eNB*.mobility.constraintAreaMaxZ = inf m
*.eNB*.mobility.constraintAreaMinX = 0 m
*.eNB*.mobility.constraintAreaMinY = 0 m
*.eNB*.mobility.constraintAreaMinZ = -inf m

# UEs

*.ue[*].mobilityType = "LinearMobility"
*.ue[0].mobility.initialX = ${257.6446311435001m, 257.6446311435001m ! Slice}
*.ue[0].mobility.initialY = ${796.4429115059636m, 796.4429115059636m ! Slice}
*.ue[0].mobility.initialZ = ${0m, 0m ! Slice}
*.ue[0].mobility.initFromDisplayString = false
*.ue[1].mobility.initialX = ${576.214055682387m, 576.214055682387m ! Slice}
*.ue[1].mobility.initialY = ${742.8394896829617m, 742.8394896829617m ! Slice}
*.ue[1].mobility.initialZ = ${0m, 0m ! Slice}
*.ue[1].mobility.initFromDisplayString = false
*.ue[2].mobility.initialX = ${734.3714797856506m, 734.3714797856506m ! Slice}
*.ue[2].mobility.initialY = ${597.838328337141m, 597.838328337141m ! Slice}
*.ue[2].mobility.initialZ = ${0m, 0m ! Slice}
*.ue[2].mobility.initFromDisplayString = false
*.ue[3].mobility.initialX = ${586.3041470075406m, 586.3041470075406m ! Slice}
*.ue[3].mobility.initialY = ${751.897854362802m, 751.897854362802m ! Slice}
*.ue[3].mobility.initialZ = ${0m, 0m ! Slice}
*.ue[3].mobility.initFromDisplayString = false
*.ue[4].mobility.initialX = ${726.9067898577142m, 726.9067898577142m ! Slice}
*.ue[4].mobility.initialY = ${458.884288253328m, 458.884288253328m ! Slice}
*.ue[4].mobility.initialZ = ${0m, 0m ! Slice}
*.ue[4].mobility.initFromDisplayString = false
*.ue[5].mobility.initialX = ${883.679410034063m, 883.679410034063m ! Slice}
*.ue[5].mobility.initialY = ${678.7281620967849m, 678.7281620967849m ! Slice}
*.ue[5].mobility.initialZ = ${0m, 0m ! Slice}
*.ue[5].mobility.initFromDisplayString = false
*.ue[6].mobility.initialX = ${837.0865031807473m, 837.0865031807473m ! Slice}
*.ue[6].mobility.initialY = ${784.1979308024208m, 784.1979308024208m ! Slice}
*.ue[6].mobility.initialZ = ${0m, 0m ! Slice}
*.ue[6].mobility.initFromDisplayString = false
*.ue[7].mobility.initialX = ${875.5494794647489m, 875.5494794647489m ! Slice}
*.ue[7].mobility.initialY = ${415.5889141418398m, 415.5889141418398m ! Slice}
*.ue[7].mobility.initialZ = ${0m, 0m ! Slice}
*.ue[7].mobility.initFromDisplayString = false
*.ue[8].mobility.initialX = ${308.12089436568687m, 308.12089436568687m ! Slice}
*.ue[8].mobility.initialY = ${956.1643935569064m, 956.1643935569064m ! Slice}
*.ue[8].mobility.initialZ = ${0m, 0m ! Slice}
*.ue[8].mobility.initFromDisplayString = false
*.ue[9].mobility.initialX = ${413.9861297149363m, 413.9861297149363m ! Slice}
*.ue[9].mobility.initialY = ${1013.6589808557034m, 1013.6589808557034m ! Slice}
*.ue[9].mobility.initialZ = ${0m, 0m ! Slice}
*.ue[9].mobility.initFromDisplayString = false
*.ue[10].mobility.initialX = ${799.8241416526547m, 799.8241416526547m ! Slice}
*.ue[10].mobility.initialY = ${923.9885993029213m, 923.9885993029213m ! Slice}
*.ue[10].mobility.initialZ = ${0m, 0m ! Slice}
*.ue[10].mobility.initFromDisplayString = false
*.ue[11].mobility.initialX = ${541.8111869362751m, 541.8111869362751m ! Slice}
*.ue[11].mobility.initialY = ${1089.4606529755747m, 1089.4606529755747m ! Slice}
*.ue[11].mobility.initialZ = ${0m, 0m ! Slice}
*.ue[11].mobility.initFromDisplayString = false
*.ue[12].mobility.initialX = ${696.4062835731409m, 696.4062835731409m ! Slice}
*.ue[12].mobility.initialY = ${875.4443815797569m, 875.4443815797569m ! Slice}
*.ue[12].mobility.initialZ = ${0m, 0m ! Slice}
*.ue[12].mobility.initFromDisplayString = false
*.ue[13].mobility.initialX = ${853.9703529639015m, 853.9703529639015m ! Slice}
*.ue[13].mobility.initialY = ${955.2766271061165m, 955.2766271061165m ! Slice}
*.ue[13].mobility.initialZ = ${0m, 0m ! Slice}
*.ue[13].mobility.initFromDisplayString = false
*.ue[14].mobility.initialX = ${907.9476710466981m, 907.9476710466981m ! Slice}
*.ue[14].mobility.initialY = ${955.5881818027468m, 955.5881818027468m ! Slice}
*.ue[14].mobility.initialZ = ${0m, 0m ! Slice}
*.ue[14].mobility.initFromDisplayString = false
*.ue[15].mobility.initialX = ${907.3733410814916m, 907.3733410814916m ! Slice}
*.ue[15].mobility.initialY = ${905.1543794286193m, 905.1543794286193m ! Slice}
*.ue[15].mobility.initialZ = ${0m, 0m ! Slice}
*.ue[15].mobility.initFromDisplayString = false
*.ue[16].mobility.initialX = ${877.1944953207967m, 877.1944953207967m ! Slice}
*.ue[16].mobility.initialY = ${925.9984671342027m, 925.9984671342027m ! Slice}
*.ue[16].mobility.initialZ = ${0m, 0m ! Slice}
*.ue[16].mobility.initFromDisplayString = false
*.ue[17].mobility.initialX = ${834.5356960679509m, 834.5356960679509m ! Slice}
*.ue[17].mobility.initialY = ${982.4963362934157m, 982.4963362934157m ! Slice}
*.ue[17].mobility.initialZ = ${0m, 0m ! Slice}
*.ue[17].mobility.initFromDisplayString = false
*.ue[18].mobility.initialX = ${887.053915001601m, 887.053915001601m ! Slice}
*.ue[18].mobility.initialY = ${884.0733829984642m, 884.0733829984642m ! Slice}
*.ue[18].mobility.initialZ = ${0m, 0m ! Slice}
*.ue[18].mobility.initFromDisplayString = false
*.ue[19].mobility.initialX = ${848.5884305161463m, 848.5884305161463m ! Slice}
*.ue[19].mobility.initialY = ${885.4201328203047m, 885.4201328203047m ! Slice}
*.ue[19].mobility.initialZ = ${0m, 0m ! Slice}
*.ue[19].mobility.initFromDisplayString = false
*.ue[20].mobility.initialX = ${911.9951509357388m, 911.9951509357388m ! Slice}
*.ue[20].mobility.initialY = ${813.2489082044402m, 813.2489082044402m ! Slice}
*.ue[20].mobility.initialZ = ${0m, 0m ! Slice}
*.ue[20].mobility.initFromDisplayString = false
*.ue[21].mobility.initialX = ${822.9428950699986m, 822.9428950699986m ! Slice}
*.ue[21].mobility.initialY = ${1063.8144388186947m, 1063.8144388186947m ! Slice}
*.ue[21].mobility.initialZ = ${0m, 0m ! Slice}
*.ue[21].mobility.initFromDisplayString = false
*.ue[22].mobility.initialX = ${850.286679952849m, 850.286679952849m ! Slice}
*.ue[22].mobility.initialY = ${936.4865959269275m, 936.4865959269275m ! Slice}
*.ue[22].mobility.initialZ = ${0m, 0m ! Slice}
*.ue[22].mobility.initFromDisplayString = false
*.ue[23].mobility.initialX = ${854.1554601964519m, 854.1554601964519m ! Slice}
*.ue[23].mobility.initialY = ${916.40235514491m, 916.40235514491m ! Slice}
*.ue[23].mobility.initialZ = ${0m, 0m ! Slice}
*.ue[23].mobility.initFromDisplayString = false
*.ue[24].mobility.initialX = ${860.1321302370071m, 860.1321302370071m ! Slice}
*.ue[24].mobility.initialY = ${881.0426608453699m, 881.0426608453699m ! Slice}
*.ue[24].mobility.initialZ = ${0m, 0m ! Slice}
*.ue[24].mobility.initFromDisplayString = false
*.ue[25].mobility.initialX = ${821.490158152895m, 821.490158152895m ! Slice}
*.ue[25].mobility.initialY = ${881.3022468177672m, 881.3022468177672m ! Slice}
*.ue[25].mobility.initialZ = ${0m, 0m ! Slice}
*.ue[25].mobility.initFromDisplayString = false
*.ue[26].mobility.initialX = ${803.0206346792229m, 803.0206346792229m ! Slice}
*.ue[26].mobility.initialY = ${955.2240301593583m, 955.2240301593583m ! Slice}
*.ue[26].mobility.initialZ = ${0m, 0m ! Slice}
*.ue[26].mobility.initFromDisplayString = false
*.ue[27].mobility.initialX = ${867.3128075666497m, 867.3128075666497m ! Slice}
*.ue[27].mobility.initialY = ${962.1436741429592m, 962.1436741429592m ! Slice}
*.ue[27].mobility.initialZ = ${0m, 0m ! Slice}
*.ue[27].mobility.initFromDisplayString = false
*.ue[28].mobility.initialX = ${903.761101362374m, 903.761101362374m ! Slice}
*.ue[28].mobility.initialY = ${960.026966746708m, 960.026966746708m ! Slice}
*.ue[28].mobility.initialZ = ${0m, 0m ! Slice}
*.ue[28].mobility.initFromDisplayString = false
*.ue[29].mobility.initialX = ${914.5483166209871m, 914.5483166209871m ! Slice}
*.ue[29].mobility.initialY = ${933.8790493790565m, 933.8790493790565m ! Slice}
*.ue[29].mobility.initialZ = ${0m, 0m ! Slice}
*.ue[29].mobility.initFromDisplayString = false
*.ue[30].mobility.initialX = ${912.8580422031798m, 912.8580422031798m ! Slice}
*.ue[30].mobility.initialY = ${927.3106533182029m, 927.3106533182029m ! Slice}
*.ue[30].mobility.initialZ = ${0m, 0m ! Slice}
*.ue[30].mobility.initFromDisplayString = false
*.ue[31].mobility.initialX = ${845.0715125354134m, 845.0715125354134m ! Slice}
*.ue[31].mobility.initialY = ${964.4138539975152m, 964.4138539975152m ! Slice}
*.ue[31].mobility.initialZ = ${0m, 0m ! Slice}
*.ue[31].mobility.initFromDisplayString = false
*.ue[32].mobility.initialX = ${929.9805261586104m, 929.9805261586104m ! Slice}
*.ue[32].mobility.initialY = ${954.4672448451337m, 954.4672448451337m ! Slice}
*.ue[32].mobility.initialZ = ${0m, 0m ! Slice}
*.ue[32].mobility.initFromDisplayString = false
*.ue[33].mobility.initialX = ${917.488815690777m, 917.488815690777m ! Slice}
*.ue[33].mobility.initialY = ${902.7957568808548m, 902.7957568808548m ! Slice}
*.ue[33].mobility.initialZ = ${0m, 0m ! Slice}
*.ue[33].mobility.initFromDisplayString = false
*.ue[34].mobility.initialX = ${901.398126691339m, 901.398126691339m ! Slice}
*.ue[34].mobility.initialY = ${861.9574509266239m, 861.9574509266239m ! Slice}
*.ue[34].mobility.initialZ = ${0m, 0m ! Slice}
*.ue[34].mobility.initFromDisplayString = false
*.ue[35].mobility.initialX = ${897.076127436428m, 897.076127436428m ! Slice}
*.ue[35].mobility.initialY = ${901.4257617003981m, 901.4257617003981m ! Slice}
*.ue[35].mobility.initialZ = ${0m, 0m ! Slice}
*.ue[35].mobility.initFromDisplayString = false
*.ue[36].mobility.initialX = ${855.3022419844705m, 855.3022419844705m ! Slice}
*.ue[36].mobility.initialY = ${993.2567472611154m, 993.2567472611154m ! Slice}
*.ue[36].mobility.initialZ = ${0m, 0m ! Slice}
*.ue[36].mobility.initFromDisplayString = false
*.ue[37].mobility.initialX = ${901.883064521765m, 901.883064521765m ! Slice}
*.ue[37].mobility.initialY = ${905.0105976155385m, 905.0105976155385m ! Slice}
*.ue[37].mobility.initialZ = ${0m, 0m ! Slice}
*.ue[37].mobility.initFromDisplayString = false
*.ue[38].mobility.initialX = ${854.736813668023m, 854.736813668023m ! Slice}
*.ue[38].mobility.initialY = ${959.7821824148775m, 959.7821824148775m ! Slice}
*.ue[38].mobility.initialZ = ${0m, 0m ! Slice}
*.ue[38].mobility.initFromDisplayString = false
*.ue[39].mobility.initialX = ${891.2485653913054m, 891.2485653913054m ! Slice}
*.ue[39].mobility.initialY = ${993.4453928406921m, 993.4453928406921m ! Slice}
*.ue[39].mobility.initialZ = ${0m, 0m ! Slice}
*.ue[39].mobility.initFromDisplayString = false
*.ue[40].mobility.initialX = ${828.7977047245046m, 828.7977047245046m ! Slice}
*.ue[40].mobility.initialY = ${921.8119863283122m, 921.8119863283122m ! Slice}
*.ue[40].mobility.initialZ = ${0m, 0m ! Slice}
*.ue[40].mobility.initFromDisplayString = false
*.ue[41].mobility.initialX = ${865.8869135785645m, 865.8869135785645m ! Slice}
*.ue[41].mobility.initialY = ${993.0462672627284m, 993.0462672627284m ! Slice}
*.ue[41].mobility.initialZ = ${0m, 0m ! Slice}
*.ue[41].mobility.initFromDisplayString = false
*.ue[42].mobility.initialX = ${875.6639583575268m, 875.6639583575268m ! Slice}
*.ue[42].mobility.initialY = ${974.8618869591265m, 974.8618869591265m ! Slice}
*.ue[42].mobility.initialZ = ${0m, 0m ! Slice}
*.ue[42].mobility.initFromDisplayString = false
*.ue[43].mobility.initialX = ${885.2537449998628m, 885.2537449998628m ! Slice}
*.ue[43].mobility.initialY = ${867.1972109469714m, 867.1972109469714m ! Slice}
*.ue[43].mobility.initialZ = ${0m, 0m ! Slice}
*.ue[43].mobility.initFromDisplayString = false
*.ue[44].mobility.initialX = ${891.7073143920679m, 891.7073143920679m ! Slice}
*.ue[44].mobility.initialY = ${939.3225414427983m, 939.3225414427983m ! Slice}
*.ue[44].mobility.initialZ = ${0m, 0m ! Slice}
*.ue[44].mobility.initFromDisplayString = false
*.ue[45].mobility.initialX = ${839.8925738955259m, 839.8925738955259m ! Slice}
*.ue[45].mobility.initialY = ${966.6286210575623m, 966.6286210575623m ! Slice}
*.ue[45].mobility.initialZ = ${0m, 0m ! Slice}
*.ue[45].mobility.initFromDisplayString = false
*.ue[46].mobility.initialX = ${895.2954803316416m, 895.2954803316416m ! Slice}
*.ue[46].mobility.initialY = ${988.8877028422183m, 988.8877028422183m ! Slice}
*.ue[46].mobility.initialZ = ${0m, 0m ! Slice}
*.ue[46].mobility.initFromDisplayString = false
*.ue[47].mobility.initialX = ${892.2239831958258m, 892.2239831958258m ! Slice}
*.ue[47].mobility.initialY = ${887.9104453296268m, 887.9104453296268m ! Slice}
*.ue[47].mobility.initialZ = ${0m, 0m ! Slice}
*.ue[47].mobility.initFromDisplayString = false
*.ue[48].mobility.initialX = ${916.8535138411467m, 916.8535138411467m ! Slice}
*.ue[48].mobility.initialY = ${978.1168148290698m, 978.1168148290698m ! Slice}
*.ue[48].mobility.initialZ = ${0m, 0m ! Slice}
*.ue[48].mobility.initFromDisplayString = false
*.ue[49].mobility.initialX = ${848.00078196632m, 848.00078196632m ! Slice}
*.ue[49].mobility.initialY = ${921.1732711545418m, 921.1732711545418m ! Slice}
*.ue[49].mobility.initialZ = ${0m, 0m ! Slice}
*.ue[49].mobility.initFromDisplayString = false
*.ue[50].mobility.initialX = ${835.0458035597113m, 835.0458035597113m ! Slice}
*.ue[50].mobility.initialY = ${944.8540204503879m, 944.8540204503879m ! Slice}
*.ue[50].mobility.initialZ = ${0m, 0m ! Slice}
*.ue[50].mobility.initFromDisplayString = false
*.ue[51].mobility.initialX = ${909.6024130791978m, 909.6024130791978m ! Slice}
*.ue[51].mobility.initialY = ${903.671904740041m, 903.671904740041m ! Slice}
*.ue[51].mobility.initialZ = ${0m, 0m ! Slice}
*.ue[51].mobility.initFromDisplayString = false
*.ue[52].mobility.initialX = ${915.1693352713901m, 915.1693352713901m ! Slice}
*.ue[52].mobility.initialY = ${944.2395423121085m, 944.2395423121085m ! Slice}
*.ue[52].mobility.initialZ = ${0m, 0m ! Slice}
*.ue[52].mobility.initFromDisplayString = false
*.ue[53].mobility.initialX = ${880.57752549867m, 880.57752549867m ! Slice}
*.ue[53].mobility.initialY = ${996.3916555001409m, 996.3916555001409m ! Slice}
*.ue[53].mobility.initialZ = ${0m, 0m ! Slice}
*.ue[53].mobility.initFromDisplayString = false
*.ue[54].mobility.initialX = ${878.5709847316529m, 878.5709847316529m ! Slice}
*.ue[54].mobility.initialY = ${866.2229999066869m, 866.2229999066869m ! Slice}
*.ue[54].mobility.initialZ = ${0m, 0m ! Slice}
*.ue[54].mobility.initFromDisplayString = false
*.ue[55].mobility.initialX = ${838.564727572777m, 838.564727572777m ! Slice}
*.ue[55].mobility.initialY = ${957.3324898209977m, 957.3324898209977m ! Slice}
*.ue[55].mobility.initialZ = ${0m, 0m ! Slice}
*.ue[55].mobility.initFromDisplayString = false
*.ue[56].mobility.initialX = ${843.7485124154273m, 843.7485124154273m ! Slice}
*.ue[56].mobility.initialY = ${945.8436512609712m, 945.8436512609712m ! Slice}
*.ue[56].mobility.initialZ = ${0m, 0m ! Slice}
*.ue[56].mobility.initFromDisplayString = false
*.ue[57].mobility.initialX = ${895.7462753375486m, 895.7462753375486m ! Slice}
*.ue[57].mobility.initialY = ${939.6067570709756m, 939.6067570709756m ! Slice}
*.ue[57].mobility.initialZ = ${0m, 0m ! Slice}
*.ue[57].mobility.initFromDisplayString = false
*.ue[58].mobility.initialX = ${858.8533512745324m, 858.8533512745324m ! Slice}
*.ue[58].mobility.initialY = ${978.2670602409107m, 978.2670602409107m ! Slice}
*.ue[58].mobility.initialZ = ${0m, 0m ! Slice}
*.ue[58].mobility.initFromDisplayString = false
*.ue[59].mobility.initialX = ${881.0083345570721m, 881.0083345570721m ! Slice}
*.ue[59].mobility.initialY = ${966.2324712083209m, 966.2324712083209m ! Slice}
*.ue[59].mobility.initialZ = ${0m, 0m ! Slice}
*.ue[59].mobility.initFromDisplayString = false
*.ue[0].mobility.speed = ${2719.5877670207356mps, 2719.5877670207356mps ! Slice}
*.ue[0].mobility.initialMovementHeading = ${80.97623191135975deg, 80.97623191135975deg ! Slice}
*.ue[1].mobility.speed = ${2229.904699428188mps, 2229.904699428188mps ! Slice}
*.ue[1].mobility.initialMovementHeading = ${39.941297632863225deg, 39.941297632863225deg ! Slice}
*.ue[2].mobility.speed = ${3170.129954798241mps, 3170.129954798241mps ! Slice}
*.ue[2].mobility.initialMovementHeading = ${354.1215014866605deg, 354.1215014866605deg ! Slice}
*.ue[3].mobility.speed = ${3249.0169282968013mps, 3249.0169282968013mps ! Slice}
*.ue[3].mobility.initialMovementHeading = ${73.92331317087371deg, 73.92331317087371deg ! Slice}
*.ue[4].mobility.speed = ${1595.9657938257235mps, 1595.9657938257235mps ! Slice}
*.ue[4].mobility.initialMovementHeading = ${351.05802185751793deg, 351.05802185751793deg ! Slice}
*.ue[5].mobility.speed = ${3519.1274641467703mps, 3519.1274641467703mps ! Slice}
*.ue[5].mobility.initialMovementHeading = ${67.67834242440571deg, 67.67834242440571deg ! Slice}
*.ue[6].mobility.speed = ${1222.2278187167421mps, 1222.2278187167421mps ! Slice}
*.ue[6].mobility.initialMovementHeading = ${197.95668184798652deg, 197.95668184798652deg ! Slice}
*.ue[7].mobility.speed = ${1407.7557748236277mps, 1407.7557748236277mps ! Slice}