#Function: ilp_fixed_info
#Parameters: 
#  filename = '../Network_CCOpMv/_5G/simulations/ilp_fixed_users.ini'
#  seed = 123
#  Map height distance = 8000
#  Map width distance = 8000
#  Region side distance = 800
[General]
sim-time-limit = 10s

############### Statistics ###############
output-scalar-file = ${resultdir}/${configname}/${repetition}.sca
output-vector-file = ${resultdir}/${configname}/${repetition}.vec
**.vector-recording = false
seed-set = ${repetition}

[Config ilp_fixed_info]
network = _5G.networks.SimpleNet
sim-time-limit = 10s
repeat = 1
seed-set = ${repetition}
num-rngs = 2
seed-1-mt = 123

output-scalar-file = ${resultdir}/${configname}/${repetition}.sca
output-vector-file = ${resultdir}/${configname}/${repetition}.vec
**.vector-recording = false

############### Transmission Power ###############
**.ueTxPower = 24
**.eNodeBTxPower = 46
**.microTxPower = 30
*.eNB.cellularNic.phy.txDirection = "OMNI"

############### Channel Control ###############
*.carrierAggregation.componentCarrier[*].carrierFrequency = 0.7GHz

############### Channel Model ###############
**.cellularNic.channelModel[*].building_height = 20
**.cellularNic.channelModel[*].nodeb_height = 25
**.cellularNic.channelModel[*].ue_height = 1.5
**.cellularNic.channelModel[*].street_wide = 20
**.cellularNic.channelModel[*].fading_type = "JAKES"
**.cellularNic.channelModel[*].extCell_interference = true
**.cellularNic.channelModel[*].antennGainEnB = 18
**.cellularNic.channelModel[*].antennGainMicro = 5
**.cellularNic.channelModel[*].antennaGainUe = 0
**.cellularNic.channelModel[*].bs_noise_figure = 5
**.cellularNic.channelModel[*].cable_loss = 2
**.cellularNic.channelModel[*].componentCarrierIndex = 0
**.cellularNic.channelModel[*].correlation_distance = 50
**.cellularNic.channelModel[*].d2d_interference = true
**.cellularNic.channelModel[*].delay_rms = 363e-9
**.cellularNic.channelModel[*].downlink_interference = false 
**.cellularNic.channelModel[*].dynamic_los = false
**.cellularNic.channelModel[*].enable_extCell_los = true
**.cellularNic.channelModel[*].fading = true
**.cellularNic.channelModel[*].fading_paths = 6
**.cellularNic.channelModel[*].fixed_los = false
**.cellularNic.channelModel[*].harqReduction = 0.2
**.cellularNic.channelModel[*].inside_building = false
**.cellularNic.channelModel[*].lambdaMaxTh = 0.2
**.cellularNic.channelModel[*].lambdaMinTh = 0.02
**.cellularNic.channelModel[*].lambdaRatioTh = 20
**.cellularNic.channelModel[*].rsrqScale = 1.0
**.cellularNic.channelModel[*].rsrqShift = 22
**.cellularNic.channelModel[*].shadowing = true
**.cellularNic.channelModel[*].targetBler = 0.01
**.cellularNic.channelModel[*].thermalNoise = -104.5
**.cellularNic.channelModel[*].tolerateMaxDistViolation = false
**.cellularNic.channelModel[*].ue_noise_figure = 7
**.cellularNic.channelModel[*].uplink_interference = false
**.cellularNic.channelModel[*].useRsrqFromLog = false
**.cellularNic.channelModel[*].useTorus = false

############### Resource Blocks ###############
**.numBands = 6

############### UEs ###############
**.numUe = 1200

# Scheduler
**.schedulingDisciplineUl = ${sched= "MAXCI"}
**.schedulingDisciplineDl = ${sched}

############### Scenario ###############

# UEs
**.ue[0].cellularNic.channelModel[*].scenario = "URBAN_MACROCELL"
**.ue[1].cellularNic.channelModel[*].scenario = "URBAN_MACROCELL"
**.ue[2].cellularNic.channelModel[*].scenario = "URBAN_MACROCELL"
**.ue[3].cellularNic.channelModel[*].scenario = "URBAN_MACROCELL"
**.ue[4].cellularNic.channelModel[*].scenario = "URBAN_MACROCELL"
**.ue[5].cellularNic.channelModel[*].scenario = "URBAN_MACROCELL"
**.ue[6].cellularNic.channelModel[*].scenario = "URBAN_MACROCELL"
**.ue[7].cellularNic.channelModel[*].scenario = "URBAN_MACROCELL"
**.ue[8].cellularNic.channelModel[*].scenario = "URBAN_MACROCELL"
**.ue[9].cellularNic.channelModel[*].scenario = "URBAN_MACROCELL"
**.ue[10].cellularNic.channelModel[*].scenario = "URBAN_MACROCELL"
**.ue[11].cellularNic.channelModel[*].scenario = "URBAN_MACROCELL"
**.ue[12].cellularNic.channelModel[*].scenario = "URBAN_MACROCELL"
**.ue[13].cellularNic.channelModel[*].scenario = "URBAN_MACROCELL"
**.ue[14].cellularNic.channelModel[*].scenario = "URBAN_MACROCELL"
**.ue[15].cellularNic.channelModel[*].scenario = "URBAN_MACROCELL"
**.ue[16].cellularNic.channelModel[*].scenario = "URBAN_MACROCELL"
**.ue[17].cellularNic.channelModel[*].scenario = "URBAN_MACROCELL"
**.ue[18].cellularNic.channelModel[*].scenario = "URBAN_MACROCELL"
**.ue[19].cellularNic.channelModel[*].scenario = "URBAN_MACROCELL"
**.ue[20].cellularNic.channelModel[*].scenario = "URBAN_MACROCELL"
**.ue[21].cellularNic.channelModel[*].scenario = "URBAN_MACROCELL"
**.ue[22].cellularNic.channelModel[*].scenario = "URBAN_MACROCELL"
**.ue[23].cellularNic.channelModel[*].scenario = "URBAN_MACROCELL"
**.ue[24].cellularNic.channelModel[*].scenario = "URBAN_MACROCELL"
**.ue[25].cellularNic.channelModel[*].scenario = "URBAN_MACROCELL"
**.ue[26].cellularNic.channelModel[*].scenario = "URBAN_MACROCELL"
**.ue[27].cellularNic.channelModel[*].scenario = "URBAN_MACROCELL"
**.ue[28].cellularNic.channelModel[*].scenario = "URBAN_MACROCELL"
**.ue[29].cellularNic.channelModel[*].scenario = "URBAN_MACROCELL"
**.ue[30].cellularNic.channelModel[*].scenario = "URBAN_MACROCELL"
**.ue[31].cellularNic.channelModel[*].scenario = "URBAN_MACROCELL"
**.ue[32].cellularNic.channelModel[*].scenario = "URBAN_MACROCELL"
**.ue[33].cellularNic.channelModel[*].scenario = "URBAN_MACROCELL"
**.ue[34].cellularNic.channelModel[*].scenario = "URBAN_MACROCELL"
**.ue[35].cellularNic.channelModel[*].scenario = "URBAN_MACROCELL"
**.ue[36].cellularNic.channelModel[*].scenario = "URBAN_MACROCELL"
**.ue[37].cellularNic.channelModel[*].scenario = "URBAN_MACROCELL"
**.ue[38].cellularNic.channelModel[*].scenario = "URBAN_MACROCELL"
**.ue[39].cellularNic.channelModel[*].scenario = "URBAN_MACROCELL"
**.ue[40].cellularNic.channelModel[*].scenario = "URBAN_MACROCELL"
**.ue[41].cellularNic.channelModel[*].scenario = "URBAN_MACROCELL"
**.ue[42].cellularNic.channelModel[*].scenario = "URBAN_MACROCELL"
**.ue[43].cellularNic.channelModel[*].scenario = "URBAN_MACROCELL"
**.ue[44].cellularNic.channelModel[*].scenario = "URBAN_MACROCELL"
**.ue[45].cellularNic.channelModel[*].scenario = "URBAN_MACROCELL"
**.ue[46].cellularNic.channelModel[*].scenario = "URBAN_MACROCELL"
**.ue[47].cellularNic.channelModel[*].scenario = "URBAN_MACROCELL"
**.ue[48].cellularNic.channelModel[*].scenario = "URBAN_MACROCELL"
**.ue[49].cellularNic.channelModel[*].scenario = "URBAN_MACROCELL"
**.ue[50].cellularNic.channelModel[*].scenario = "URBAN_MACROCELL"
**.ue[51].cellularNic.channelModel[*].scenario = "URBAN_MACROCELL"
**.ue[52].cellularNic.channelModel[*].scenario = "URBAN_MACROCELL"
**.ue[53].cellularNic.channelModel[*].scenario = "URBAN_MACROCELL"
**.ue[54].cellularNic.channelModel[*].scenario = "URBAN_MACROCELL"
**.ue[55].cellularNic.channelModel[*].scenario = "URBAN_MACROCELL"
**.ue[56].cellularNic.channelModel[*].scenario = "URBAN_MACROCELL"
**.ue[57].cellularNic.channelModel[*].scenario = "URBAN_MACROCELL"
**.ue[58].cellularNic.channelModel[*].scenario = "URBAN_MACROCELL"
**.ue[59].cellularNic.channelModel[*].scenario = "URBAN_MACROCELL"
**.ue[60].cellularNic.channelModel[*].scenario = "URBAN_MACROCELL"
**.ue[61].cellularNic.channelModel[*].scenario = "URBAN_MACROCELL"
**.ue[62].cellularNic.channelModel[*].scenario = "URBAN_MACROCELL"
**.ue[63].cellularNic.channelModel[*].scenario = "URBAN_MACROCELL"
**.ue[64].cellularNic.channelModel[*].scenario = "URBAN_MACROCELL"
**.ue[65].cellularNic.channelModel[*].scenario = "URBAN_MACROCELL"
**.ue[66].cellularNic.channelModel[*].scenario = "URBAN_MACROCELL"
**.ue[67].cellularNic.channelModel[*].scenario = "URBAN_MACROCELL"
**.ue[68].cellularNic.channelModel[*].scenario = "URBAN_MACROCELL"
**.ue[69].cellularNic.channelModel[*].scenario = "URBAN_MACROCELL"
**.ue[70].cellularNic.channelModel[*].scenario = "URBAN_MACROCELL"
**.ue[71].cellularNic.channelModel[*].scenario = "URBAN_MACROCELL"
**.ue[72].cellularNic.channelModel[*].scenario = "URBAN_MACROCELL"
**.ue[73].cellularNic.channelModel[*].scenario = "URBAN_MACROCELL"
**.ue[74].cellularNic.channelModel[*].scenario = "URBAN_MACROCELL"
**.ue[75].cellularNic.channelModel[*].scenario = "URBAN_MACROCELL"
**.ue[76].cellularNic.channelModel[*].scenario = "URBAN_MACROCELL"
**.ue[77].cellularNic.channelModel[*].scenario = "URBAN_MACROCELL"
**.ue[78].cellularNic.channelModel[*].scenario = "URBAN_MACROCELL"
**.ue[79].cellularNic.channelModel[*].scenario = "URBAN_MACROCELL"
**.ue[80].cellularNic.channelModel[*].scenario = "URBAN_MACROCELL"
**.ue[81].cellularNic.channelModel[*].scenario = "URBAN_MACROCELL"
**.ue[82].cellularNic.channelModel[*].scenario = "URBAN_MACROCELL"
**.ue[83].cellularNic.channelModel[*].scenario = "URBAN_MACROCELL"
**.ue[84].cellularNic.channelModel[*].scenario = "URBAN_MACROCELL"
**.ue[85].cellularNic.channelModel[*].scenario = "URBAN_MACROCELL"
**.ue[86].cellularNic.channelModel[*].scenario = "URBAN_MACROCELL"
**.ue[87].cellularNic.channelModel[*].scenario = "URBAN_MACROCELL"
**.ue[88].cellularNic.channelModel[*].scenario = "URBAN_MACROCELL"
**.ue[89].cellularNic.channelModel[*].scenario = "URBAN_MACROCELL"
**.ue[90].cellularNic.channelModel[*].scenario = "URBAN_MACROCELL"
**.ue[91].cellularNic.channelModel[*].scenario = "URBAN_MACROCELL"
**.ue[92].cellularNic.channelModel[*].scenario = "URBAN_MACROCELL"
**.ue[93].cellularNic.channelModel[*].scenario = "URBAN_MACROCELL"
**.ue[94].cellularNic.channelModel[*].scenario = "URBAN_MACROCELL"
**.ue[95].cellularNic.channelModel[*].scenario = "URBAN_MACROCELL"
**.ue[96].cellularNic.channelModel[*].scenario = "URBAN_MACROCELL"
**.ue[97].cellularNic.channelModel[*].scenario = "URBAN_MACROCELL"
**.ue[98].cellularNic.channelModel[*].scenario = "URBAN_MACROCELL"
**.ue[99].cellularNic.channelModel[*].scenario = "URBAN_MACROCELL"
**.ue[100].cellularNic.channelModel[*].scenario = "URBAN_MACROCELL"
**.ue[101].cellularNic.channelModel[*].scenario = "URBAN_MACROCELL"
**.ue[102].cellularNic.channelModel[*].scenario = "URBAN_MACROCELL"
**.ue[103].cellularNic.channelModel[*].scenario = "URBAN_MACROCELL"
**.ue[104].cellularNic.channelModel[*].scenario = "URBAN_MACROCELL"
**.ue[105].cellularNic.channelModel[*].scenario = "URBAN_MACROCELL"
**.ue[106].cellularNic.channelModel[*].scenario = "URBAN_MACROCELL"
**.ue[107].cellularNic.channelModel[*].scenario = "URBAN_MACROCELL"
**.ue[108].cellularNic.channelModel[*].scenario = "URBAN_MACROCELL"
**.ue[109].cellularNic.channelModel[*].scenario = "URBAN_MACROCELL"
**.ue[110].cellularNic.channelModel[*].scenario = "URBAN_MACROCELL"
**.ue[111].cellularNic.channelModel[*].scenario = "URBAN_MACROCELL"
**.ue[112].cellularNic.channelModel[*].scenario = "URBAN_MACROCELL"
**.ue[113].cellularNic.channelModel[*].scenario = "URBAN_MACROCELL"
**.ue[114].cellularNic.channelModel[*].scenario = "URBAN_MACROCELL"
**.ue[115].cellularNic.channelModel[*].scenario = "URBAN_MACROCELL"
**.ue[116].cellularNic.channelModel[*].scenario = "URBAN_MACROCELL"
**.ue[117].cellularNic.channelModel[*].scenario = "URBAN_MACROCELL"
**.ue[118].cellularNic.channelModel[*].scenario = "URBAN_MACROCELL"
**.ue[119].cellularNic.channelModel[*].scenario = "URBAN_MACROCELL"
**.ue[120].cellularNic.channelModel[*].scenario = "URBAN_MACROCELL"
**.ue[121].cellularNic.channelModel[*].scenario = "URBAN_MACROCELL"
**.ue[122].cellularNic.channelModel[*].scenario = "URBAN_MACROCELL"
**.ue[123].cellularNic.channelModel[*].scenario = "URBAN_MACROCELL"
**.ue[124].cellularNic.channelModel[*].scenario = "URBAN_MACROCELL"
**.ue[125].cellularNic.channelModel[*].scenario = "URBAN_MACROCELL"
**.ue[126].cellularNic.channelModel[*].scenario = "URBAN_MACROCELL"
**.ue[127].cellularNic.channelModel[*].scenario = "URBAN_MACROCELL"
**.ue[128].cellularNic.channelModel[*].scenario = "URBAN_MACROCELL"
**.ue[129].cellularNic.channelModel[*].scenario = "URBAN_MACROCELL"
**.ue[130].cellularNic.channelModel[*].scenario = "URBAN_MACROCELL"
**.ue[131].cellularNic.channelModel[*].scenario = "URBAN_MACROCELL"
**.ue[132].cellularNic.channelModel[*].scenario = "URBAN_MACROCELL"
**.ue[133].cellularNic.channelModel[*].scenario = "URBAN_MACROCELL"
**.ue[134].cellularNic.channelModel[*].scenario = "URBAN_MACROCELL"
**.ue[135].cellularNic.channelModel[*].scenario = "URBAN_MACROCELL"
**.ue[136].cellularNic.channelModel[*].scenario = "URBAN_MACROCELL"
**.ue[137].cellularNic.channelModel[*].scenario = "URBAN_MACROCELL"
**.ue[138].cellularNic.channelModel[*].scenario = "URBAN_MACROCELL"
**.ue[139].cellularNic.channelModel[*].scenario = "URBAN_MACROCELL"
**.ue[140].cellularNic.channelModel[*].scenario = "URBAN_MACROCELL"
**.ue[141].cellularNic.channelModel[*].scenario = "URBAN_MACROCELL"
**.ue[142].cellularNic.channelModel[*].scenario = "URBAN_MACROCELL"
**.ue[143].cellularNic.channelModel[*].scenario = "URBAN_MACROCELL"
**.ue[144].cellularNic.channelModel[*].scenario = "URBAN_MACROCELL"
**.ue[145].cellularNic.channelModel[*].scenario = "URBAN_MACROCELL"
**.ue[146].cellularNic.channelModel[*].scenario = "URBAN_MACROCELL"
**.ue[147].cellularNic.channelModel[*].scenario = "URBAN_MACROCELL"
**.ue[148].cellularNic.channelModel[*].scenario = "URBAN_MACROCELL"
**.ue[149].cellularNic.channelModel[*].scenario = "URBAN_MACROCELL"
**.ue[150].cellularNic.channelModel[*].scenario = "URBAN_MACROCELL"
**.ue[151].cellularNic.channelModel[*].scenario = "URBAN_MACROCELL"
**.ue[152].cellularNic.channelModel[*].scenario = "URBAN_MACROCELL"
**.ue[153].cellularNic.channelModel[*].scenario = "URBAN_MACROCELL"
**.ue[154].cellularNic.channelModel[*].scenario = "URBAN_MACROCELL"
**.ue[155].cellularNic.channelModel[*].scenario = "URBAN_MACROCELL"
**.ue[156].cellularNic.channelModel[*].scenario = "URBAN_MACROCELL"
**.ue[157].cellularNic.channelModel[*].scenario = "URBAN_MACROCELL"
**.ue[158].cellularNic.channelModel[*].scenario = "URBAN_MACROCELL"
**.ue[159].cellularNic.channelModel[*].scenario = "URBAN_MACROCELL"
**.ue[160].cellularNic.channelModel[*].scenario = "URBAN_MACROCELL"
**.ue[161].cellularNic.channelModel[*].scenario = "URBAN_MACROCELL"
**.ue[162].cellularNic.channelModel[*].scenario = "URBAN_MACROCELL"
**.ue[163].cellularNic.channelModel[*].scenario = "URBAN_MACROCELL"
**.ue[164].cellularNic.channelModel[*].scenario = "URBAN_MACROCELL"
**.ue[165].cellularNic.channelModel[*].scenario = "URBAN_MACROCELL"
**.ue[166].cellularNic.channelModel[*].scenario = "URBAN_MACROCELL"
**.ue[167].cellularNic.channelModel[*].scenario = "URBAN_MACROCELL"
**.ue[168].cellularNic.channelModel[*].scenario = "URBAN_MACROCELL"
**.ue[169].cellularNic.channelModel[*].scenario = "URBAN_MACROCELL"
**.ue[170].cellularNic.channelModel[*].scenario = "URBAN_MACROCELL"
**.ue[171].cellularNic.channelModel[*].scenario = "URBAN_MACROCELL"
**.ue[172].cellularNic.channelModel[*].scenario = "URBAN_MACROCELL"
**.ue[173].cellularNic.channelModel[*].scenario = "URBAN_MACROCELL"
**.ue[174].cellularNic.channelModel[*].scenario = "URBAN_MACROCELL"
**.ue[175].cellularNic.channelModel[*].scenario = "URBAN_MACROCELL"
**.ue[176].cellularNic.channelModel[*].scenario = "URBAN_MACROCELL"
**.ue[177].cellularNic.channelModel[*].scenario = "URBAN_MACROCELL"
**.ue[178].cellularNic.channelModel[*].scenario = "URBAN_MACROCELL"
**.ue[179].cellularNic.channelModel[*].scenario = "URBAN_MACROCELL"
**.ue[180].cellularNic.channelModel[*].scenario = "URBAN_MACROCELL"
**.ue[181].cellularNic.channelModel[*].scenario = "URBAN_MACROCELL"
**.ue[182].cellularNic.channelModel[*].scenario = "URBAN_MACROCELL"
**.ue[183].cellularNic.channelModel[*].scenario = "URBAN_MACROCELL"
**.ue[184].cellularNic.channelModel[*].scenario = "URBAN_MACROCELL"
**.ue[185].cellularNic.channelModel[*].scenario = "URBAN_MACROCELL"
**.ue[186].cellularNic.channelModel[*].scenario = "URBAN_MACROCELL"
**.ue[187].cellularNic.channelModel[*].scenario = "URBAN_MACROCELL"
**.ue[188].cellularNic.channelModel[*].scenario = "URBAN_MACROCELL"
**.ue[189].cellularNic.channelModel[*].scenario = "URBAN_MACROCELL"
**.ue[190].cellularNic.channelModel[*].scenario = "URBAN_MACROCELL"
**.ue[191].cellularNic.channelModel[*].scenario = "URBAN_MACROCELL"
**.ue[192].cellularNic.channelModel[*].scenario = "URBAN_MACROCELL"
**.ue[193].cellularNic.channelModel[*].scenario = "URBAN_MACROCELL"
**.ue[194].cellularNic.channelModel[*].scenario = "URBAN_MACROCELL"
**.ue[195].cellularNic.channelModel[*].scenario = "URBAN_MACROCELL"
**.ue[196].cellularNic.channelModel[*].scenario = "URBAN_MACROCELL"
**.ue[197].cellularNic.channelModel[*].scenario = "URBAN_MACROCELL"
**.ue[198].cellularNic.channelModel[*].scenario = "URBAN_MACROCELL"
**.ue[199].cellularNic.channelModel[*].scenario = "URBAN_MACROCELL"
**.ue[200].cellularNic.channelModel[*].scenario = "URBAN_MACROCELL"
**.ue[201].cellularNic.channelModel[*].scenario = "URBAN_MACROCELL"
**.ue[202].cellularNic.channelModel[*].scenario = "URBAN_MACROCELL"
**.ue[203].cellularNic.channelModel[*].scenario = "URBAN_MACROCELL"
**.ue[204].cellularNic.channelModel[*].scenario = "URBAN_MACROCELL"
**.ue[205].cellularNic.channelModel[*].scenario = "URBAN_MACROCELL"
**.ue[206].cellularNic.channelModel[*].scenario = "URBAN_MACROCELL"
**.ue[207].cellularNic.channelModel[*].scenario = "URBAN_MACROCELL"
**.ue[208].cellularNic.channelModel[*].scenario = "URBAN_MACROCELL"
**.ue[209].cellularNic.channelModel[*].scenario = "URBAN_MACROCELL"
**.ue[210].cellularNic.channelModel[*].scenario = "URBAN_MACROCELL"
**.ue[211].cellularNic.channelModel[*].scenario = "URBAN_MACROCELL"
**.ue[212].cellularNic.channelModel[*].scenario = "URBAN_MACROCELL"
**.ue[213].cellularNic.channelModel[*].scenario = "URBAN_MACROCELL"
**.ue[214].cellularNic.channelModel[*].scenario = "URBAN_MACROCELL"
**.ue[215].cellularNic.channelModel[*].scenario = "URBAN_MACROCELL"
**.ue[216].cellularNic.channelModel[*].scenario = "URBAN_MACROCELL"
**.ue[217].cellularNic.channelModel[*].scenario = "URBAN_MACROCELL"
**.ue[218].cellularNic.channelModel[*].scenario = "URBAN_MACROCELL"
**.ue[219].cellularNic.channelModel[*].scenario = "URBAN_MACROCELL"
**.ue[220].cellularNic.channelModel[*].scenario = "URBAN_MACROCELL"
**.ue[221].cellularNic.channelModel[*].scenario = "URBAN_MACROCELL"
**.ue[222].cellularNic.channelModel[*].scenario = "URBAN_MACROCELL"
**.ue[223].cellularNic.channelModel[*].scenario = "URBAN_MACROCELL"
**.ue[224].cellularNic.channelModel[*].scenario = "URBAN_MACROCELL"
**.ue[225].cellularNic.channelModel[*].scenario = "URBAN_MACROCELL"
**.ue[226].cellularNic.channelModel[*].scenario = "URBAN_MACROCELL"
**.ue[227].cellularNic.channelModel[*].scenario = "URBAN_MACROCELL"
**.ue[228].cellularNic.channelModel[*].scenario = "URBAN_MACROCELL"
**.ue[229].cellularNic.channelModel[*].scenario = "URBAN_MACROCELL"
**.ue[230].cellularNic.channelModel[*].scenario = "URBAN_MACROCELL"
**.ue[231].cellularNic.channelModel[*].scenario = "URBAN_MACROCELL"
**.ue[232].cellularNic.channelModel[*].scenario = "URBAN_MACROCELL"
**.ue[233].cellularNic.channelModel[*].scenario = "URBAN_MACROCELL"
**.ue[234].cellularNic.channelModel[*].scenario = "URBAN_MACROCELL"
**.ue[235].cellularNic.channelModel[*].scenario = "URBAN_MACROCELL"
**.ue[236].cellularNic.channelModel[*].scenario = "URBAN_MACROCELL"
**.ue[237].cellularNic.channelModel[*].scenario = "URBAN_MACROCELL"
**.ue[238].cellularNic.channelModel[*].scenario = "URBAN_MACROCELL"
**.ue[239].cellularNic.channelModel[*].scenario = "URBAN_MACROCELL"
**.ue[240].cellularNic.channelModel[*].scenario = "URBAN_MACROCELL"
**.ue[241].cellularNic.channelModel[*].scenario = "URBAN_MACROCELL"
**.ue[242].cellularNic.channelModel[*].scenario = "URBAN_MACROCELL"
**.ue[243].cellularNic.channelModel[*].scenario = "URBAN_MACROCELL"
**.ue[244].cellularNic.channelModel[*].scenario = "URBAN_MACROCELL"
**.ue[245].cellularNic.channelModel[*].scenario = "URBAN_MACROCELL"
**.ue[246].cellularNic.channelModel[*].scenario = "URBAN_MACROCELL"
**.ue[247].cellularNic.channelModel[*].scenario = "URBAN_MACROCELL"
**.ue[248].cellularNic.channelModel[*].scenario = "URBAN_MACROCELL"
**.ue[249].cellularNic.channelModel[*].scenario = "URBAN_MACROCELL"
**.ue[250].cellularNic.channelModel[*].scenario = "URBAN_MACROCELL"
**.ue[251].cellularNic.channelModel[*].scenario = "URBAN_MACROCELL"
**.ue[252].cellularNic.channelModel[*].scenario = "URBAN_MACROCELL"
**.ue[253].cellularNic.channelModel[*].scenario = "URBAN_MACROCELL"
**.ue[254].cellularNic.channelModel[*].scenario = "URBAN_MACROCELL"
**.ue[255].cellularNic.channelModel[*].scenario = "URBAN_MACROCELL"
**.ue[256].cellularNic.channelModel[*].scenario = "URBAN_MACROCELL"
**.ue[257].cellularNic.channelModel[*].scenario = "URBAN_MACROCELL"
**.ue[258].cellularNic.channelModel[*].scenario = "URBAN_MACROCELL"
**.ue[259].cellularNic.channelModel[*].scenario = "URBAN_MACROCELL"
**.ue[260].cellularNic.channelModel[*].scenario = "URBAN_MACROCELL"
**.ue[261].cellularNic.channelModel[*].scenario = "URBAN_MACROCELL"
**.ue[262].cellularNic.channelModel[*].scenario = "URBAN_MACROCELL"
**.ue[263].cellularNic.channelModel[*].scenario = "URBAN_MACROCELL"
**.ue[264].cellularNic.channelModel[*].scenario = "URBAN_MACROCELL"
**.ue[265].cellularNic.channelModel[*].scenario = "URBAN_MACROCELL"
**.ue[266].cellularNic.channelModel[*].scenario = "URBAN_MACROCELL"
**.ue[267].cellularNic.channelModel[*].scenario = "URBAN_MACROCELL"
**.ue[268].cellularNic.channelModel[*].scenario = "URBAN_MACROCELL"
**.ue[269].cellularNic.channelModel[*].scenario = "URBAN_MACROCELL"
**.ue[270].cellularNic.channelModel[*].scenario = "URBAN_MACROCELL"
**.ue[271].cellularNic.channelModel[*].scenario = "URBAN_MACROCELL"
**.ue[272].cellularNic.channelModel[*].scenario = "URBAN_MACROCELL"
**.ue[273].cellularNic.channelModel[*].scenario = "URBAN_MACROCELL"
**.ue[274].cellularNic.channelModel[*].scenario = "URBAN_MACROCELL"
**.ue[275].cellularNic.channelModel[*].scenario = "URBAN_MACROCELL"
**.ue[276].cellularNic.channelModel[*].scenario = "URBAN_MACROCELL"
**.ue[277].cellularNic.channelModel[*].scenario = "URBAN_MACROCELL"
**.ue[278].cellularNic.channelModel[*].scenario = "URBAN_MACROCELL"
**.ue[279].cellularNic.channelModel[*].scenario = "URBAN_MACROCELL"
**.ue[280].cellularNic.channelModel[*].scenario = "URBAN_MACROCELL"
**.ue[281].cellularNic.channelModel[*].scenario = "URBAN_MACROCELL"
**.ue[282].cellularNic.channelModel[*].scenario = "URBAN_MACROCELL"
**.ue[283].cellularNic.channelModel[*].scenario = "URBAN_MACROCELL"
**.ue[284].cellularNic.channelModel[*].scenario = "URBAN_MACROCELL"
**.ue[285].cellularNic.channelModel[*].scenario = "URBAN_MACROCELL"
**.ue[286].cellularNic.channelModel[*].scenario = "URBAN_MACROCELL"
**.ue[287].cellularNic.channelModel[*].scenario = "URBAN_MACROCELL"
**.ue[288].cellularNic.channelModel[*].scenario = "URBAN_MACROCELL"
**.ue[289].cellularNic.channelModel[*].scenario = "URBAN_MACROCELL"
**.ue[290].cellularNic.channelModel[*].scenario = "URBAN_MACROCELL"
**.ue[291].cellularNic.channelModel[*].scenario = "URBAN_MACROCELL"
**.ue[292].cellularNic.channelModel[*].scenario = "URBAN_MACROCELL"
**.ue[293].cellularNic.channelModel[*].scenario = "URBAN_MACROCELL"
**.ue[294].cellularNic.channelModel[*].scenario = "URBAN_MACROCELL"
**.ue[295].cellularNic.channelModel[*].scenario = "URBAN_MACROCELL"
**.ue[296].cellularNic.channelModel[*].scenario = "URBAN_MACROCELL"
**.ue[297].cellularNic.channelModel[*].scenario = "URBAN_MACROCELL"
**.ue[298].cellularNic.channelModel[*].scenario = "URBAN_MACROCELL"
**.ue[299].cellularNic.channelModel[*].scenario = "URBAN_MACROCELL"
**.ue[300].cellularNic.channelModel[*].scenario = "URBAN_MACROCELL"
**.ue[301].cellularNic.channelModel[*].scenario = "URBAN_MACROCELL"
**.ue[302].cellularNic.channelModel[*].scenario = "URBAN_MACROCELL"
**.ue[303].cellularNic.channelModel[*].scenario = "URBAN_MACROCELL"
**.ue[304].cellularNic.channelModel[*].scenario = "URBAN_MACROCELL"
**.ue[305].cellularNic.channelModel[*].scenario = "URBAN_MACROCELL"
**.ue[306].cellularNic.channelModel[*].scenario = "URBAN_MACROCELL"
**.ue[307].cellularNic.channelModel[*].scenario = "URBAN_MACROCELL"
**.ue[308].cellularNic.channelModel[*].scenario = "URBAN_MACROCELL"
**.ue[309].cellularNic.channelModel[*].scenario = "URBAN_MACROCELL"
**.ue[310].cellularNic.channelModel[*].scenario = "URBAN_MACROCELL"
**.ue[311].cellularNic.channelModel[*].scenario = "URBAN_MACROCELL"
**.ue[312].cellularNic.channelModel[*].scenario = "URBAN_MACROCELL"
**.ue[313].cellularNic.channelModel[*].scenario = "URBAN_MACROCELL"
**.ue[314].cellularNic.channelModel[*].scenario = "URBAN_MACROCELL"
**.ue[315].cellularNic.channelModel[*].scenario = "URBAN_MACROCELL"
**.ue[316].cellularNic.channelModel[*].scenario = "URBAN_MACROCELL"
**.ue[317].cellularNic.channelModel[*].scenario = "URBAN_MACROCELL"
**.ue[318].cellularNic.channelModel[*].scenario = "URBAN_MACROCELL"
**.ue[319].cellularNic.channelModel[*].scenario = "URBAN_MACROCELL"
**.ue[320].cellularNic.channelModel[*].scenario = "URBAN_MACROCELL"
**.ue[321].cellularNic.channelModel[*].scenario = "URBAN_MACROCELL"
**.ue[322].cellularNic.channelModel[*].scenario = "URBAN_MACROCELL"
**.ue[323].cellularNic.channelModel[*].scenario = "URBAN_MACROCELL"
**.ue[324].cellularNic.channelModel[*].scenario = "URBAN_MACROCELL"
**.ue[325].cellularNic.channelModel[*].scenario = "URBAN_MACROCELL"
**.ue[326].cellularNic.channelModel[*].scenario = "URBAN_MACROCELL"
**.ue[327].cellularNic.channelModel[*].scenario = "URBAN_MACROCELL"
**.ue[328].cellularNic.channelModel[*].scenario = "URBAN_MACROCELL"
**.ue[329].cellularNic.channelModel[*].scenario = "URBAN_MACROCELL"
**.ue[330].cellularNic.channelModel[*].scenario = "URBAN_MACROCELL"
**.ue[331].cellularNic.channelModel[*].scenario = "URBAN_MACROCELL"
**.ue[332].cellularNic.channelModel[*].scenario = "URBAN_MACROCELL"
**.ue[333].cellularNic.channelModel[*].scenario = "URBAN_MACROCELL"
**.ue[334].cellularNic.channelModel[*].scenario = "URBAN_MACROCELL"
**.ue[335].cellularNic.channelModel[*].scenario = "URBAN_MACROCELL"
**.ue[336].cellularNic.channelModel[*].scenario = "URBAN_MACROCELL"
**.ue[337].cellularNic.channelModel[*].scenario = "URBAN_MACROCELL"
**.ue[338].cellularNic.channelModel[*].scenario = "URBAN_MACROCELL"
**.ue[339].cellularNic.channelModel[*].scenario = "URBAN_MACROCELL"
**.ue[340].cellularNic.channelModel[*].scenario = "URBAN_MACROCELL"
**.ue[341].cellularNic.channelModel[*].scenario = "URBAN_MACROCELL"
**.ue[342].cellularNic.channelModel[*].scenario = "URBAN_MACROCELL"
**.ue[343].cellularNic.channelModel[*].scenario = "URBAN_MACROCELL"
**.ue[344].cellularNic.channelModel[*].scenario = "URBAN_MACROCELL"
**.ue[345].cellularNic.channelModel[*].scenario = "URBAN_MACROCELL"
**.ue[346].cellularNic.channelModel[*].scenario = "URBAN_MACROCELL"
**.ue[347].cellularNic.channelModel[*].scenario = "URBAN_MACROCELL"
**.ue[348].cellularNic.channelModel[*].scenario = "URBAN_MACROCELL"
**.ue[349].cellularNic.channelModel[*].scenario = "URBAN_MACROCELL"
**.ue[350].cellularNic.channelModel[*].scenario = "URBAN_MACROCELL"
**.ue[351].cellularNic.channelModel[*].scenario = "URBAN_MACROCELL"
**.ue[352].cellularNic.channelModel[*].scenario = "URBAN_MACROCELL"
**.ue[353].cellularNic.channelModel[*].scenario = "URBAN_MACROCELL"
**.ue[354].cellularNic.channelModel[*].scenario = "URBAN_MACROCELL"
**.ue[355].cellularNic.channelModel[*].scenario = "URBAN_MACROCELL"
**.ue[356].cellularNic.channelModel[*].scenario = "URBAN_MACROCELL"
**.ue[357].cellularNic.channelModel[*].scenario = "URBAN_MACROCELL"
**.ue[358].cellularNic.channelModel[*].scenario = "URBAN_MACROCELL"
**.ue[359].cellularNic.channelModel[*].scenario = "URBAN_MACROCELL"
**.ue[360].cellularNic.channelModel[*].scenario = "URBAN_MACROCELL"
**.ue[361].cellularNic.channelModel[*].scenario = "URBAN_MACROCELL"
**.ue[362].cellularNic.channelModel[*].scenario = "URBAN_MACROCELL"
**.ue[363].cellularNic.channelModel[*].scenario = "URBAN_MACROCELL"
**.ue[364].cellularNic.channelModel[*].scenario = "URBAN_MACROCELL"
**.ue[365].cellularNic.channelModel[*].scenario = "URBAN_MACROCELL"
**.ue[366].cellularNic.channelModel[*].scenario = "URBAN_MACROCELL"
**.ue[367].cellularNic.channelModel[*].scenario = "URBAN_MACROCELL"
**.ue[368].cellularNic.channelModel[*].scenario = "URBAN_MACROCELL"
**.ue[369].cellularNic.channelModel[*].scenario = "URBAN_MACROCELL"
**.ue[370].cellularNic.channelModel[*].scenario = "URBAN_MACROCELL"
**.ue[371].cellularNic.channelModel[*].scenario = "URBAN_MACROCELL"
**.ue[372].cellularNic.channelModel[*].scenario = "URBAN_MACROCELL"
**.ue[373].cellularNic.channelModel[*].scenario = "URBAN_MACROCELL"
**.ue[374].cellularNic.channelModel[*].scenario = "URBAN_MACROCELL"
**.ue[375].cellularNic.channelModel[*].scenario = "URBAN_MACROCELL"
**.ue[376].cellularNic.channelModel[*].scenario = "URBAN_MACROCELL"
**.ue[377].cellularNic.channelModel[*].scenario = "URBAN_MACROCELL"
**.ue[378].cellularNic.channelModel[*].scenario = "URBAN_MACROCELL"
**.ue[379].cellularNic.channelModel[*].scenario = "URBAN_MACROCELL"
**.ue[380].cellularNic.channelModel[*].scenario = "URBAN_MACROCELL"
**.ue[381].cellularNic.channelModel[*].scenario = "URBAN_MACROCELL"
**.ue[382].cellularNic.channelModel[*].scenario = "URBAN_MACROCELL"
**.ue[383].cellularNic.channelModel[*].scenario = "URBAN_MACROCELL"
**.ue[384].cellularNic.channelModel[*].scenario = "URBAN_MACROCELL"
**.ue[385].cellularNic.channelModel[*].scenario = "URBAN_MACROCELL"
**.ue[386].cellularNic.channelModel[*].scenario = "URBAN_MACROCELL"
**.ue[387].cellularNic.channelModel[*].scenario = "URBAN_MACROCELL"