#Function: ilp_move_users
#Parameters:
#   filename: ../Network_CCOpMv/_5G/simulations/ilp_move_users-8.ini
#   seed: 8
#   size_y: 4000
#   size_x: 4000
#   size_sector: 400
#   n_macros: 1
#   config_name: ilp_move_users
#   num_slices: 10
#Extra = Using 1 macros with 60 ues each.
[General]
sim-time-limit = 10s

############### Statistics ###############
output-scalar-file = ${resultdir}/${configname}/${repetition}.sca
output-vector-file = ${resultdir}/${configname}/${repetition}.vec
**.vector-recording = false
eventlog-file = ${resultdir}/${configname}/${repetition}.elog
seed-set = ${repetition}

[Config ilp_move_users]
network = _5G.networks.SimpleNet
sim-time-limit = 10s
repeat = 1
seed-set = ${repetition}
num-rngs = 2
seed-1-mt = 8

output-scalar-file = ${resultdir}/${configname}/${repetition}.sca
output-vector-file = ${resultdir}/${configname}/${repetition}.vec
**.vector-recording = false
eventlog-file = ${resultdir}/${configname}/${repetition}.elog

############### Snapshots ###############
snapshot-file = ../../../Functions/ilp_move_users-8.sna
**.snapshotter.snapshot = true
**.snapshotter.delay = 1

############### Transmission Power ###############
**.ueTxPower = 24
**.eNodeBTxPower = 46
**.microTxPower = 30
**.cellularNic.phy.txDirection = "OMNI"

############### Channel Control ###############
**.numComponentCarriers = 1
*.carrierAggregation.componentCarrier[0].carrierFrequency = 0.7GHz

############### Channel Model ###############
**.cellularNic.LteChannelModelType = "LteRealisticChannelModel"
**.cellularNic.channelModel[*].building_height = 20
**.cellularNic.channelModel[*].nodeb_height = 25
**.cellularNic.channelModel[*].ue_height = 1.5
**.cellularNic.channelModel[*].street_wide = 20
**.cellularNic.channelModel[*].fading_type = "JAKES"
**.cellularNic.channelModel[*].extCell_interference = false
**.cellularNic.channelModel[*].antennGainEnB = 18
**.cellularNic.channelModel[*].antennGainMicro = 5
**.cellularNic.channelModel[*].antennaGainUe = 0
**.cellularNic.channelModel[*].bs_noise_figure = 5
**.cellularNic.channelModel[*].cable_loss = 2
**.cellularNic.channelModel[*].componentCarrierIndex = 0
**.cellularNic.channelModel[*].correlation_distance = 50
**.cellularNic.channelModel[*].d2d_interference = true
**.cellularNic.channelModel[*].delay_rms = 363e-9
**.cellularNic.channelModel[*].downlink_interference = false
**.cellularNic.channelModel[*].dynamic_los = false
**.cellularNic.channelModel[*].enable_extCell_los = true
**.cellularNic.channelModel[*].fading = true
**.cellularNic.channelModel[*].fading_paths = 6
**.cellularNic.channelModel[*].fixed_los = false
**.cellularNic.channelModel[*].harqReduction = 0.2
**.cellularNic.channelModel[*].inside_building = false
**.cellularNic.channelModel[*].lambdaMaxTh = 0.2
**.cellularNic.channelModel[*].lambdaMinTh = 0.02
**.cellularNic.channelModel[*].lambdaRatioTh = 20
**.cellularNic.channelModel[*].rsrqScale = 1.0
**.cellularNic.channelModel[*].rsrqShift = 22
**.cellularNic.channelModel[*].shadowing = true
**.cellularNic.channelModel[*].targetBler = 0.01
**.cellularNic.channelModel[*].thermalNoise = -104.5
**.cellularNic.channelModel[*].tolerateMaxDistViolation = true
**.cellularNic.channelModel[*].ue_noise_figure = 7
**.cellularNic.channelModel[*].uplink_interference = false
**.cellularNic.channelModel[*].useRsrqFromLog = false
**.cellularNic.channelModel[*].useTorus = false

############### Resource Blocks ###############
**.numBands = 6

############### UEs ###############
**.numUe = 60

# Conecting UEs to eNodeB
**.ue[0].macCellId = 1
**.ue[0].masterId = 1
**.ue[1].macCellId = 1
**.ue[1].masterId = 1
**.ue[2].macCellId = 1
**.ue[2].masterId = 1
**.ue[3].macCellId = 1
**.ue[3].masterId = 1
**.ue[4].macCellId = 1
**.ue[4].masterId = 1
**.ue[5].macCellId = 1
**.ue[5].masterId = 1
**.ue[6].macCellId = 1
**.ue[6].masterId = 1
**.ue[7].macCellId = 1
**.ue[7].masterId = 1
**.ue[8].macCellId = 1
**.ue[8].masterId = 1
**.ue[9].macCellId = 1
**.ue[9].masterId = 1
**.ue[10].macCellId = 1
**.ue[10].masterId = 1
**.ue[11].macCellId = 1
**.ue[11].masterId = 1
**.ue[12].macCellId = 1
**.ue[12].masterId = 1
**.ue[13].macCellId = 1
**.ue[13].masterId = 1
**.ue[14].macCellId = 1
**.ue[14].masterId = 1
**.ue[15].macCellId = 1
**.ue[15].masterId = 1
**.ue[16].macCellId = 1
**.ue[16].masterId = 1
**.ue[17].macCellId = 1
**.ue[17].masterId = 1
**.ue[18].macCellId = 1
**.ue[18].masterId = 1
**.ue[19].macCellId = 1
**.ue[19].masterId = 1
**.ue[20].macCellId = 1
**.ue[20].masterId = 1
**.ue[21].macCellId = 1
**.ue[21].masterId = 1
**.ue[22].macCellId = 1
**.ue[22].masterId = 1
**.ue[23].macCellId = 1
**.ue[23].masterId = 1
**.ue[24].macCellId = 1
**.ue[24].masterId = 1
**.ue[25].macCellId = 1
**.ue[25].masterId = 1
**.ue[26].macCellId = 1
**.ue[26].masterId = 1
**.ue[27].macCellId = 1
**.ue[27].masterId = 1
**.ue[28].macCellId = 1
**.ue[28].masterId = 1
**.ue[29].macCellId = 1
**.ue[29].masterId = 1
**.ue[30].macCellId = 1
**.ue[30].masterId = 1
**.ue[31].macCellId = 1
**.ue[31].masterId = 1
**.ue[32].macCellId = 1
**.ue[32].masterId = 1
**.ue[33].macCellId = 1
**.ue[33].masterId = 1
**.ue[34].macCellId = 1
**.ue[34].masterId = 1
**.ue[35].macCellId = 1
**.ue[35].masterId = 1
**.ue[36].macCellId = 1
**.ue[36].masterId = 1
**.ue[37].macCellId = 1
**.ue[37].masterId = 1
**.ue[38].macCellId = 1
**.ue[38].masterId = 1
**.ue[39].macCellId = 1
**.ue[39].masterId = 1
**.ue[40].macCellId = 1
**.ue[40].masterId = 1
**.ue[41].macCellId = 1
**.ue[41].masterId = 1
**.ue[42].macCellId = 1
**.ue[42].masterId = 1
**.ue[43].macCellId = 1
**.ue[43].masterId = 1
**.ue[44].macCellId = 1
**.ue[44].masterId = 1
**.ue[45].macCellId = 1
**.ue[45].masterId = 1
**.ue[46].macCellId = 1
**.ue[46].masterId = 1
**.ue[47].macCellId = 1
**.ue[47].masterId = 1
**.ue[48].macCellId = 1
**.ue[48].masterId = 1
**.ue[49].macCellId = 1
**.ue[49].masterId = 1
**.ue[50].macCellId = 1
**.ue[50].masterId = 1
**.ue[51].macCellId = 1
**.ue[51].masterId = 1
**.ue[52].macCellId = 1
**.ue[52].masterId = 1
**.ue[53].macCellId = 1
**.ue[53].masterId = 1
**.ue[54].macCellId = 1
**.ue[54].masterId = 1
**.ue[55].macCellId = 1
**.ue[55].masterId = 1
**.ue[56].macCellId = 1
**.ue[56].masterId = 1
**.ue[57].macCellId = 1
**.ue[57].masterId = 1
**.ue[58].macCellId = 1
**.ue[58].masterId = 1
**.ue[59].macCellId = 1
**.ue[59].masterId = 1

# Scheduler
**.schedulingDisciplineUl = ${sched= "MAXCI"}
**.schedulingDisciplineDl = ${sched}

############### Scenario ###############

# UEs
**.ue[0].cellularNic.channelModel[*].scenario = "URBAN_MACROCELL"
**.ue[1].cellularNic.channelModel[*].scenario = "URBAN_MACROCELL"
**.ue[2].cellularNic.channelModel[*].scenario = "URBAN_MACROCELL"
**.ue[3].cellularNic.channelModel[*].scenario = "URBAN_MACROCELL"
**.ue[4].cellularNic.channelModel[*].scenario = "URBAN_MACROCELL"
**.ue[5].cellularNic.channelModel[*].scenario = "URBAN_MACROCELL"
**.ue[6].cellularNic.channelModel[*].scenario = "URBAN_MACROCELL"
**.ue[7].cellularNic.channelModel[*].scenario = "URBAN_MACROCELL"
**.ue[8].cellularNic.channelModel[*].scenario = "URBAN_MACROCELL"
**.ue[9].cellularNic.channelModel[*].scenario = "URBAN_MACROCELL"
**.ue[10].cellularNic.channelModel[*].scenario = "URBAN_MACROCELL"
**.ue[11].cellularNic.channelModel[*].scenario = "URBAN_MACROCELL"
**.ue[12].cellularNic.channelModel[*].scenario = "URBAN_MACROCELL"
**.ue[13].cellularNic.channelModel[*].scenario = "URBAN_MACROCELL"
**.ue[14].cellularNic.channelModel[*].scenario = "URBAN_MACROCELL"
**.ue[15].cellularNic.channelModel[*].scenario = "URBAN_MACROCELL"
**.ue[16].cellularNic.channelModel[*].scenario = "URBAN_MACROCELL"
**.ue[17].cellularNic.channelModel[*].scenario = "URBAN_MACROCELL"
**.ue[18].cellularNic.channelModel[*].scenario = "URBAN_MACROCELL"
**.ue[19].cellularNic.channelModel[*].scenario = "URBAN_MACROCELL"
**.ue[20].cellularNic.channelModel[*].scenario = "URBAN_MACROCELL"
**.ue[21].cellularNic.channelModel[*].scenario = "URBAN_MACROCELL"
**.ue[22].cellularNic.channelModel[*].scenario = "URBAN_MACROCELL"
**.ue[23].cellularNic.channelModel[*].scenario = "URBAN_MACROCELL"
**.ue[24].cellularNic.channelModel[*].scenario = "URBAN_MACROCELL"
**.ue[25].cellularNic.channelModel[*].scenario = "URBAN_MACROCELL"
**.ue[26].cellularNic.channelModel[*].scenario = "URBAN_MACROCELL"
**.ue[27].cellularNic.channelModel[*].scenario = "URBAN_MACROCELL"
**.ue[28].cellularNic.channelModel[*].scenario = "URBAN_MACROCELL"
**.ue[29].cellularNic.channelModel[*].scenario = "URBAN_MACROCELL"
**.ue[30].cellularNic.channelModel[*].scenario = "URBAN_MACROCELL"
**.ue[31].cellularNic.channelModel[*].scenario = "URBAN_MACROCELL"
**.ue[32].cellularNic.channelModel[*].scenario = "URBAN_MACROCELL"
**.ue[33].cellularNic.channelModel[*].scenario = "URBAN_MACROCELL"
**.ue[34].cellularNic.channelModel[*].scenario = "URBAN_MACROCELL"
**.ue[35].cellularNic.channelModel[*].scenario = "URBAN_MACROCELL"
**.ue[36].cellularNic.channelModel[*].scenario = "URBAN_MACROCELL"
**.ue[37].cellularNic.channelModel[*].scenario = "URBAN_MACROCELL"
**.ue[38].cellularNic.channelModel[*].scenario = "URBAN_MACROCELL"
**.ue[39].cellularNic.channelModel[*].scenario = "URBAN_MACROCELL"
**.ue[40].cellularNic.channelModel[*].scenario = "URBAN_MACROCELL"
**.ue[41].cellularNic.channelModel[*].scenario = "URBAN_MACROCELL"
**.ue[42].cellularNic.channelModel[*].scenario = "URBAN_MACROCELL"
**.ue[43].cellularNic.channelModel[*].scenario = "URBAN_MACROCELL"
**.ue[44].cellularNic.channelModel[*].scenario = "URBAN_MACROCELL"
**.ue[45].cellularNic.channelModel[*].scenario = "URBAN_MACROCELL"
**.ue[46].cellularNic.channelModel[*].scenario = "URBAN_MACROCELL"
**.ue[47].cellularNic.channelModel[*].scenario = "URBAN_MACROCELL"
**.ue[48].cellularNic.channelModel[*].scenario = "URBAN_MACROCELL"
**.ue[49].cellularNic.channelModel[*].scenario = "URBAN_MACROCELL"
**.ue[50].cellularNic.channelModel[*].scenario = "URBAN_MACROCELL"
**.ue[51].cellularNic.channelModel[*].scenario = "URBAN_MACROCELL"
**.ue[52].cellularNic.channelModel[*].scenario = "URBAN_MACROCELL"
**.ue[53].cellularNic.channelModel[*].scenario = "URBAN_MACROCELL"
**.ue[54].cellularNic.channelModel[*].scenario = "URBAN_MACROCELL"
**.ue[55].cellularNic.channelModel[*].scenario = "URBAN_MACROCELL"
**.ue[56].cellularNic.channelModel[*].scenario = "URBAN_MACROCELL"
**.ue[57].cellularNic.channelModel[*].scenario = "URBAN_MACROCELL"
**.ue[58].cellularNic.channelModel[*].scenario = "URBAN_MACROCELL"
**.ue[59].cellularNic.channelModel[*].scenario = "URBAN_MACROCELL"

############### Mobility ###############

# UEs

*.ue[*].mobilityType = "VariableSpeedMobility"
*.ue[*].mobility.changeInterval = 1s
*.ue[*].mobility.meanSpeed = 3000mps
*.ue[*].mobility.standardDeviation = 1000
*.ue[0].mobility.initialX = 1122.7846158245914m
*.ue[0].mobility.initialY = 3194.327081810496m
*.ue[0].mobility.initialZ = 0m
*.ue[0].mobility.initFromDisplayString = false
*.ue[1].mobility.initialX = 1135.7260432152261m
*.ue[1].mobility.initialY = 3188.8957374771157m
*.ue[1].mobility.initialZ = 0m
*.ue[1].mobility.initFromDisplayString = false
*.ue[2].mobility.initialX = 1130.6984917521513m
*.ue[2].mobility.initialY = 3196.015813795974m
*.ue[2].mobility.initialZ = 0m
*.ue[2].mobility.initFromDisplayString = false
*.ue[3].mobility.initialX = 1122.374633393317m
*.ue[3].mobility.initialY = 3184.2972921569935m
*.ue[3].mobility.initialZ = 0m
*.ue[3].mobility.initFromDisplayString = false
*.ue[4].mobility.initialX = 1096.369320463575m
*.ue[4].mobility.initialY = 3097.4629044583303m
*.ue[4].mobility.initialZ = 0m
*.ue[4].mobility.initFromDisplayString = false
*.ue[5].mobility.initialX = 1135.8783174353928m
*.ue[5].mobility.initialY = 3191.1547027229017m
*.ue[5].mobility.initialZ = 0m
*.ue[5].mobility.initFromDisplayString = false
*.ue[6].mobility.initialX = 1134.9942332482628m
*.ue[6].mobility.initialY = 3175.199358076929m
*.ue[6].mobility.initialZ = 0m
*.ue[6].mobility.initFromDisplayString = false
*.ue[7].mobility.initialX = 1152.0195425427492m
*.ue[7].mobility.initialY = 3174.884415661617m
*.ue[7].mobility.initialZ = 0m
*.ue[7].mobility.initFromDisplayString = false
*.ue[8].mobility.initialX = 1112.0427870881201m
*.ue[8].mobility.initialY = 3183.008244215808m
*.ue[8].mobility.initialZ = 0m
*.ue[8].mobility.initFromDisplayString = false
*.ue[9].mobility.initialX = 875.7591981835509m
*.ue[9].mobility.initialY = 3150.993093297872m
*.ue[9].mobility.initialZ = 0m
*.ue[9].mobility.initFromDisplayString = false
*.ue[10].mobility.initialX = 1173.9142717225448m
*.ue[10].mobility.initialY = 3009.1488951449974m
*.ue[10].mobility.initialZ = 0m
*.ue[10].mobility.initFromDisplayString = false
*.ue[11].mobility.initialX = 1163.7723560677978m
*.ue[11].mobility.initialY = 3194.448642741844m
*.ue[11].mobility.initialZ = 0m
*.ue[11].mobility.initFromDisplayString = false
*.ue[12].mobility.initialX = 1100.4416450114215m
*.ue[12].mobility.initialY = 3188.559586174555m
*.ue[12].mobility.initialZ = 0m
*.ue[12].mobility.initFromDisplayString = false
*.ue[13].mobility.initialX = 1100.8823717307193m
*.ue[13].mobility.initialY = 3188.5255924814405m
*.ue[13].mobility.initialZ = 0m
*.ue[13].mobility.initFromDisplayString = false
*.ue[14].mobility.initialX = 1119.4255418660614m
*.ue[14].mobility.initialY = 3008.0836926095544m
*.ue[14].mobility.initialZ = 0m
*.ue[14].mobility.initFromDisplayString = false
*.ue[15].mobility.initialX = 1147.0445191746892m
*.ue[15].mobility.initialY = 3196.843973372745m
*.ue[15].mobility.initialZ = 0m
*.ue[15].mobility.initFromDisplayString = false
*.ue[16].mobility.initialX = 1165.0997952621576m
*.ue[16].mobility.initialY = 3188.37283817729m
*.ue[16].mobility.initialZ = 0m
*.ue[16].mobility.initFromDisplayString = false
*.ue[17].mobility.initialX = 1155.4639845923004m
*.ue[17].mobility.initialY = 3309.578569489961m
*.ue[17].mobility.initialZ = 0m
*.ue[17].mobility.initFromDisplayString = false
*.ue[18].mobility.initialX = 1155.2928979569547m
*.ue[18].mobility.initialY = 3287.91335449865m
*.ue[18].mobility.initialZ = 0m
*.ue[18].mobility.initFromDisplayString = false
*.ue[19].mobility.initialX = 1136.76611704293m
*.ue[19].mobility.initialY = 3251.7161080499986m
*.ue[19].mobility.initialZ = 0m
*.ue[19].mobility.initFromDisplayString = false
*.ue[20].mobility.initialX = 1125.0027253127214m
*.ue[20].mobility.initialY = 3229.8242620935525m
*.ue[20].mobility.initialZ = 0m
*.ue[20].mobility.initFromDisplayString = false
*.ue[21].mobility.initialX = 1079.6124887432488m
*.ue[21].mobility.initialY = 3242.758377376242m
*.ue[21].mobility.initialZ = 0m
*.ue[21].mobility.initFromDisplayString = false
*.ue[22].mobility.initialX = 1154.7135509478617m
*.ue[22].mobility.initialY = 3287.793492480936m
*.ue[22].mobility.initialZ = 0m
*.ue[22].mobility.initFromDisplayString = false
*.ue[23].mobility.initialX = 1123.211493284961m
*.ue[23].mobility.initialY = 3305.933584801456m
*.ue[23].mobility.initialZ = 0m
*.ue[23].mobility.initFromDisplayString = false
*.ue[24].mobility.initialX = 1194.1233093554406m
*.ue[24].mobility.initialY = 3231.3735928636834m
*.ue[24].mobility.initialZ = 0m
*.ue[24].mobility.initFromDisplayString = false
*.ue[25].mobility.initialX = 1193.5919332652952m
*.ue[25].mobility.initialY = 3223.7478824289487m
*.ue[25].mobility.initialZ = 0m
*.ue[25].mobility.initFromDisplayString = false
*.ue[26].mobility.initialX = 1111.1220319167328m
*.ue[26].mobility.initialY = 3237.0052815195418m
*.ue[26].mobility.initialZ = 0m
*.ue[26].mobility.initFromDisplayString = false
*.ue[27].mobility.initialX = 1133.4751703073737m
*.ue[27].mobility.initialY = 3282.6543879248948m
*.ue[27].mobility.initialZ = 0m
*.ue[27].mobility.initFromDisplayString = false
*.ue[28].mobility.initialX = 1167.7192743342391m
*.ue[28].mobility.initialY = 3300.8095546977397m
*.ue[28].mobility.initialZ = 0m
*.ue[28].mobility.initFromDisplayString = false
*.ue[29].mobility.initialX = 1158.4161241176441m
*.ue[29].mobility.initialY = 3307.8433547838517m
*.ue[29].mobility.initialZ = 0m
*.ue[29].mobility.initFromDisplayString = false
*.ue[30].mobility.initialX = 1104.4285641961837m
*.ue[30].mobility.initialY = 3293.166402499298m
*.ue[30].mobility.initialZ = 0m
*.ue[30].mobility.initFromDisplayString = false
*.ue[31].mobility.initialX = 1095.5301009064653m
*.ue[31].mobility.initialY = 3256.7788969017747m
*.ue[31].mobility.initialZ = 0m
*.ue[31].mobility.initFromDisplayString = false
*.ue[32].mobility.initialX = 1156.3710254399573m
*.ue[32].mobility.initialY = 3252.892753718176m
*.ue[32].mobility.initialZ = 0m
*.ue[32].mobility.initFromDisplayString = false
*.ue[33].mobility.initialX = 1074.9265170910244m
*.ue[33].mobility.initialY = 3239.927879734811m
*.ue[33].mobility.initialZ = 0m
*.ue[33].mobility.initFromDisplayString = false
*.ue[34].mobility.initialX = 1198.6969532210585m
*.ue[34].mobility.initialY = 3238.2193682171187m
*.ue[34].mobility.initialZ = 0m
*.ue[34].mobility.initFromDisplayString = false
*.ue[35].mobility.initialX = 1178.0852794131436m
*.ue[35].mobility.initialY = 3265.1356163072023m
*.ue[35].mobility.initialZ = 0m
*.ue[35].mobility.initFromDisplayString = false
*.ue[36].mobility.initialX = 1157.6244858070818m
*.ue[36].mobility.initialY = 3260.9631385134803m
*.ue[36].mobility.initialZ = 0m
*.ue[36].mobility.initFromDisplayString = false
*.ue[37].mobility.initialX = 1144.2488904581837m
*.ue[37].mobility.initialY = 3283.4243327113295m
*.ue[37].mobility.initialZ = 0m
*.ue[37].mobility.initFromDisplayString = false
*.ue[38].mobility.initialX = 1176.146777007329m
*.ue[38].mobility.initialY = 3267.347406117007m
*.ue[38].mobility.initialZ = 0m
*.ue[38].mobility.initFromDisplayString = false
*.ue[39].mobility.initialX = 1122.321926795067m
*.ue[39].mobility.initialY = 3579.394128691863m
*.ue[39].mobility.initialZ = 0m
*.ue[39].mobility.initFromDisplayString = false
*.ue[40].mobility.initialX = 1177.4946518047072m
*.ue[40].mobility.initialY = 3226.5691932097893m
*.ue[40].mobility.initialZ = 0m
*.ue[40].mobility.initFromDisplayString = false
*.ue[41].mobility.initialX = 1051.4252905544374m
*.ue[41].mobility.initialY = 3523.9764114070276m
*.ue[41].mobility.initialZ = 0m
*.ue[41].mobility.initFromDisplayString = false
*.ue[42].mobility.initialX = 1089.6172375075657m
*.ue[42].mobility.initialY = 3233.0151372124333m
*.ue[42].mobility.initialZ = 0m
*.ue[42].mobility.initFromDisplayString = false
*.ue[43].mobility.initialX = 1129.9649812803407m
*.ue[43].mobility.initialY = 3301.2944799389747m
*.ue[43].mobility.initialZ = 0m
*.ue[43].mobility.initFromDisplayString = false
*.ue[44].mobility.initialX = 1128.3289009715256m
*.ue[44].mobility.initialY = 3277.2641964469076m
*.ue[44].mobility.initialZ = 0m
*.ue[44].mobility.initFromDisplayString = false
*.ue[45].mobility.initialX = 1081.7026128488453m
*.ue[45].mobility.initialY = 3276.593322357982m
*.ue[45].mobility.initialZ = 0m
*.ue[45].mobility.initFromDisplayString = false
*.ue[46].mobility.initialX = 1199.0308523536119m
*.ue[46].mobility.initialY = 3208.441103076364m
*.ue[46].mobility.initialZ = 0m
*.ue[46].mobility.initFromDisplayString = false
*.ue[47].mobility.initialX = 1187.2926680165315m
*.ue[47].mobility.initialY = 3272.00422033931m
*.ue[47].mobility.initialZ = 0m
*.ue[47].mobility.initFromDisplayString = false
*.ue[48].mobility.initialX = 1113.972778636775m
*.ue[48].mobility.initialY = 3271.6267863638027m
*.ue[48].mobility.initialZ = 0m
*.ue[48].mobility.initFromDisplayString = false
*.ue[49].mobility.initialX = 1103.4536735165054m
*.ue[49].mobility.initialY = 3290.3982165290313m
*.ue[49].mobility.initialZ = 0m
*.ue[49].mobility.initFromDisplayString = false
*.ue[50].mobility.initialX = 1137.6970324664533m
*.ue[50].mobility.initialY = 3212.450193573791m
*.ue[50].mobility.initialZ = 0m
*.ue[50].mobility.initFromDisplayString = false
*.ue[51].mobility.initialX = 1078.2751114032264m
*.ue[51].mobility.initialY = 3249.81657872794m
*.ue[51].mobility.initialZ = 0m
*.ue[51].mobility.initFromDisplayString = false
*.ue[52].mobility.initialX = 1377.7717231222055m
*.ue[52].mobility.initialY = 3558.3591197093983m
*.ue[52].mobility.initialZ = 0m
*.ue[52].mobility.initFromDisplayString = false
*.ue[53].mobility.initialX = 1286.1659258252698m
*.ue[53].mobility.initialY = 3398.216885429596m
*.ue[53].mobility.initialZ = 0m
*.ue[53].mobility.initFromDisplayString = false
*.ue[54].mobility.initialX = 1318.0151733122352m
*.ue[54].mobility.initialY = 3249.297665596132m
*.ue[54].mobility.initialZ = 0m
*.ue[54].mobility.initFromDisplayString = false
*.ue[55].mobility.initialX = 1540.8072313565012m
*.ue[55].mobility.initialY = 3204.002466653072m
*.ue[55].mobility.initialZ = 0m
*.ue[55].mobility.initFromDisplayString = false
*.ue[56].mobility.initialX = 1565.5631810945267m
*.ue[56].mobility.initialY = 3209.1795728091834m
*.ue[56].mobility.initialZ = 0m
*.ue[56].mobility.initFromDisplayString = false
*.ue[57].mobility.initialX = 1031.5866765578467m
*.ue[57].mobility.initialY = 3748.7386088718276m
*.ue[57].mobility.initialZ = 0m
*.ue[57].mobility.initFromDisplayString = false
*.ue[58].mobility.initialX = 891.5717924375015m
*.ue[58].mobility.initialY = 3631.948436570017m
*.ue[58].mobility.initialZ = 0m
*.ue[58].mobility.initFromDisplayString = false
*.ue[59].mobility.initialX = 1383.3327949549268m
*.ue[59].mobility.initialY = 3639.3600846447785m
*.ue[59].mobility.initialZ = 0m
*.ue[59].mobility.initFromDisplayString = false
*.ue[0].mobility.initialMovementHeading = 223.7147095601114deg
*.ue[1].mobility.initialMovementHeading = 83.74178814569687deg
*.ue[2].mobility.initialMovementHeading = 226.51324087436484deg
*.ue[3].mobility.initialMovementHeading = 130.09326799486286deg
*.ue[4].mobility.initialMovementHeading = 255.3622240754322deg
*.ue[5].mobility.initialMovementHeading = 296.36428812459deg
*.ue[6].mobility.initialMovementHeading = 228.9709873816493deg
*.ue[7].mobility.initialMovementHeading = 230.6146448240865deg
*.ue[8].mobility.initialMovementHeading = 53.194331130657936deg
*.ue[9].mobility.initialMovementHeading = 342.4511507393658deg
*.ue[10].mobility.initialMovementHeading = 217.04384928765307deg
*.ue[11].mobility.initialMovementHeading = 249.37127716950377deg
*.ue[12].mobility.initialMovementHeading = 246.18251636161835deg
*.ue[13].mobility.initialMovementHeading = 79.63106413746124deg
*.ue[14].mobility.initialMovementHeading = 58.213303386393356deg
*.ue[15].mobility.initialMovementHeading = 160.03090915373764deg
*.ue[16].mobility.initialMovementHeading = 276.79011487757083deg
*.ue[17].mobility.initialMovementHeading = 146.8159224286896deg
*.ue[18].mobility.initialMovementHeading = 21.904897467365156deg
*.ue[19].mobility.initialMovementHeading = 220.95465558352367deg
*.ue[20].mobility.initialMovementHeading = 303.8409531167345deg
*.ue[21].mobility.initialMovementHeading = 244.84616592842244deg
*.ue[22].mobility.initialMovementHeading = 192.11808297020787deg
*.ue[23].mobility.initialMovementHeading = 78.29782936473931deg
*.ue[24].mobility.initialMovementHeading = 296.95408028329246deg
*.ue[25].mobility.initialMovementHeading = 141.86692455068447deg
*.ue[26].mobility.initialMovementHeading = 340.10962386870057deg
*.ue[27].mobility.initialMovementHeading = 28.696167901032382deg
*.ue[28].mobility.initialMovementHeading = 45.865271958798516deg
*.ue[29].mobility.initialMovementHeading = 226.90189427385818deg
*.ue[30].mobility.initialMovementHeading = 354.90525390411347deg
*.ue[31].mobility.initialMovementHeading = 61.107704882502574deg
*.ue[32].mobility.initialMovementHeading = 124.65975415532579deg
*.ue[33].mobility.initialMovementHeading = 134.96930679205255deg
*.ue[34].mobility.initialMovementHeading = 282.93076342482374deg
*.ue[35].mobility.initialMovementHeading = 210.26015554675968deg
*.ue[36].mobility.initialMovementHeading = 104.24930889241631deg
*.ue[37].mobility.initialMovementHeading = 122.76896095940688deg
*.ue[38].mobility.initialMovementHeading = 169.2109337915258deg
*.ue[39].mobility.initialMovementHeading = 13.173311349131325deg
*.ue[40].mobility.initialMovementHeading = 113.14708568189302deg
*.ue[41].mobility.initialMovementHeading = 149.22057125289027deg
*.ue[42].mobility.initialMovementHeading = 215.00908372592224deg
*.ue[43].mobility.initialMovementHeading = 249.83672081593733deg
*.ue[44].mobility.initialMovementHeading = 250.57130946264505deg
*.ue[45].mobility.initialMovementHeading = 249.50966470942492deg
*.ue[46].mobility.initialMovementHeading = 280.8681070521623deg
*.ue[47].mobility.initialMovementHeading = 113.21644817290904deg
*.ue[48].mobility.initialMovementHeading = 260.16665342023725deg
*.ue[49].mobility.initialMovementHeading = 247.53788922896243deg
*.ue[50].mobility.initialMovementHeading = 302.374107298485deg
*.ue[51].mobility.initialMovementHeading = 308.4897635351267deg
*.ue[52].mobility.initialMovementHeading = 208.20410018532007deg
*.ue[53].mobility.initialMovementHeading = 50.65075706220161deg
*.ue[54].mobility.initialMovementHeading = 202.13895903770444deg
*.ue[55].mobility.initialMovementHeading = 124.52325374990156deg
*.ue[56].mobility.initialMovementHeading = 215.48822435596844deg
*.ue[57].mobility.initialMovementHeading = 355.0723334562501deg
*.ue[58].mobility.initialMovementHeading = 290.6406250434344deg
*.ue[59].mobility.initialMovementHeading = 301.621713486877deg
*.ue[*].mobility.constraintAreaMaxX = 4000 m
*.ue[*].mobility.constraintAreaMaxY = 4000 m
*.ue[*].mobility.constraintAreaMaxZ = inf m
*.ue[*].mobility.constraintAreaMinX = 0 m
*.ue[*].mobility.constraintAreaMinY = 0 m
*.ue[*].mobility.constraintAreaMinZ = -inf m
