#Function: ilp_fixed_info
#Parameters: 
#  filename = '../Network_CCOpMv/_5G/simulations/ilp_fixed_info.ini'
#  seed = 123
#  Map height distance = 1000
#  Map width distance = 1000
#  Region side distance = 100
[General]
sim-time-limit = 10s

############### Statistics ###############
output-scalar-file = ${resultdir}/${configname}/${repetition}.sca
output-vector-file = ${resultdir}/${configname}/${repetition}.vec
**.vector-recording = false
seed-set = ${repetition}

[Config ilp_fixed_info]
network = _5G.networks.SimpleNet
sim-time-limit = 10s
repeat = 1
seed-set = ${repetition}
num-rngs = 2
seed-1-mt = 123

output-scalar-file = ${resultdir}/${configname}/${iniX}-${iniY}.sca
output-vector-file = ${resultdir}/${configname}/${iniX}-${iniY}.vec
**.vector-recording = false

############### Transmission Power ###############
**.ueTxPower = 24
**.eNodeBTxPower = 46
**.microTxPower = 30

############### Resource Blocks ###############
**.numBands = 6

############### UEs ###############
**.numUe = 100

# Conecting UEs to eNodeB
**.ue[0].macCellId = 1
**.ue[0].masterId = 1
**.ue[1].macCellId = 1
**.ue[1].masterId = 1
**.ue[2].macCellId = 1
**.ue[2].masterId = 1
**.ue[3].macCellId = 1
**.ue[3].masterId = 1
**.ue[4].macCellId = 1
**.ue[4].masterId = 1
**.ue[5].macCellId = 1
**.ue[5].masterId = 1
**.ue[6].macCellId = 1
**.ue[6].masterId = 1
**.ue[7].macCellId = 1
**.ue[7].masterId = 1
**.ue[8].macCellId = 1
**.ue[8].masterId = 1
**.ue[9].macCellId = 1
**.ue[9].masterId = 1
**.ue[10].macCellId = 1
**.ue[10].masterId = 1
**.ue[11].macCellId = 1
**.ue[11].masterId = 1
**.ue[12].macCellId = 1
**.ue[12].masterId = 1
**.ue[13].macCellId = 1
**.ue[13].masterId = 1
**.ue[14].macCellId = 1
**.ue[14].masterId = 1
**.ue[15].macCellId = 1
**.ue[15].masterId = 1
**.ue[16].macCellId = 1
**.ue[16].masterId = 1
**.ue[17].macCellId = 1
**.ue[17].masterId = 1
**.ue[18].macCellId = 1
**.ue[18].masterId = 1
**.ue[19].macCellId = 1
**.ue[19].masterId = 1
**.ue[20].macCellId = 1
**.ue[20].masterId = 1
**.ue[21].macCellId = 1
**.ue[21].masterId = 1
**.ue[22].macCellId = 1
**.ue[22].masterId = 1
**.ue[23].macCellId = 1
**.ue[23].masterId = 1
**.ue[24].macCellId = 1
**.ue[24].masterId = 1
**.ue[25].macCellId = 1
**.ue[25].masterId = 1
**.ue[26].macCellId = 1
**.ue[26].masterId = 1
**.ue[27].macCellId = 1
**.ue[27].masterId = 1
**.ue[28].macCellId = 1
**.ue[28].masterId = 1
**.ue[29].macCellId = 1
**.ue[29].masterId = 1
**.ue[30].macCellId = 1
**.ue[30].masterId = 1
**.ue[31].macCellId = 1
**.ue[31].masterId = 1
**.ue[32].macCellId = 1
**.ue[32].masterId = 1
**.ue[33].macCellId = 1
**.ue[33].masterId = 1
**.ue[34].macCellId = 1
**.ue[34].masterId = 1
**.ue[35].macCellId = 1
**.ue[35].masterId = 1
**.ue[36].macCellId = 1
**.ue[36].masterId = 1
**.ue[37].macCellId = 1
**.ue[37].masterId = 1
**.ue[38].macCellId = 1
**.ue[38].masterId = 1
**.ue[39].macCellId = 1
**.ue[39].masterId = 1
**.ue[40].macCellId = 1
**.ue[40].masterId = 1
**.ue[41].macCellId = 1
**.ue[41].masterId = 1
**.ue[42].macCellId = 1
**.ue[42].masterId = 1
**.ue[43].macCellId = 1
**.ue[43].masterId = 1
**.ue[44].macCellId = 1
**.ue[44].masterId = 1
**.ue[45].macCellId = 1
**.ue[45].masterId = 1
**.ue[46].macCellId = 1
**.ue[46].masterId = 1
**.ue[47].macCellId = 1
**.ue[47].masterId = 1
**.ue[48].macCellId = 1
**.ue[48].masterId = 1
**.ue[49].macCellId = 1
**.ue[49].masterId = 1
**.ue[50].macCellId = 1
**.ue[50].masterId = 1
**.ue[51].macCellId = 1
**.ue[51].masterId = 1
**.ue[52].macCellId = 1
**.ue[52].masterId = 1
**.ue[53].macCellId = 1
**.ue[53].masterId = 1
**.ue[54].macCellId = 1
**.ue[54].masterId = 1
**.ue[55].macCellId = 1
**.ue[55].masterId = 1
**.ue[56].macCellId = 1
**.ue[56].masterId = 1
**.ue[57].macCellId = 1
**.ue[57].masterId = 1
**.ue[58].macCellId = 1
**.ue[58].masterId = 1
**.ue[59].macCellId = 1
**.ue[59].masterId = 1
**.ue[60].macCellId = 1
**.ue[60].masterId = 1
**.ue[61].macCellId = 1
**.ue[61].masterId = 1
**.ue[62].macCellId = 1
**.ue[62].masterId = 1
**.ue[63].macCellId = 1
**.ue[63].masterId = 1
**.ue[64].macCellId = 1
**.ue[64].masterId = 1
**.ue[65].macCellId = 1
**.ue[65].masterId = 1
**.ue[66].macCellId = 1
**.ue[66].masterId = 1
**.ue[67].macCellId = 1
**.ue[67].masterId = 1
**.ue[68].macCellId = 1
**.ue[68].masterId = 1
**.ue[69].macCellId = 1
**.ue[69].masterId = 1
**.ue[70].macCellId = 1
**.ue[70].masterId = 1
**.ue[71].macCellId = 1
**.ue[71].masterId = 1
**.ue[72].macCellId = 1
**.ue[72].masterId = 1
**.ue[73].macCellId = 1
**.ue[73].masterId = 1
**.ue[74].macCellId = 1
**.ue[74].masterId = 1
**.ue[75].macCellId = 1
**.ue[75].masterId = 1
**.ue[76].macCellId = 1
**.ue[76].masterId = 1
**.ue[77].macCellId = 1
**.ue[77].masterId = 1
**.ue[78].macCellId = 1
**.ue[78].masterId = 1
**.ue[79].macCellId = 1
**.ue[79].masterId = 1
**.ue[80].macCellId = 1
**.ue[80].masterId = 1
**.ue[81].macCellId = 1
**.ue[81].masterId = 1
**.ue[82].macCellId = 1
**.ue[82].masterId = 1
**.ue[83].macCellId = 1
**.ue[83].masterId = 1
**.ue[84].macCellId = 1
**.ue[84].masterId = 1
**.ue[85].macCellId = 1
**.ue[85].masterId = 1
**.ue[86].macCellId = 1
**.ue[86].masterId = 1
**.ue[87].macCellId = 1
**.ue[87].masterId = 1
**.ue[88].macCellId = 1
**.ue[88].masterId = 1
**.ue[89].macCellId = 1
**.ue[89].masterId = 1
**.ue[90].macCellId = 1
**.ue[90].masterId = 1
**.ue[91].macCellId = 1
**.ue[91].masterId = 1
**.ue[92].macCellId = 1
**.ue[92].masterId = 1
**.ue[93].macCellId = 1
**.ue[93].masterId = 1
**.ue[94].macCellId = 1
**.ue[94].masterId = 1
**.ue[95].macCellId = 1
**.ue[95].masterId = 1
**.ue[96].macCellId = 1
**.ue[96].masterId = 1
**.ue[97].macCellId = 1
**.ue[97].masterId = 1
**.ue[98].macCellId = 1
**.ue[98].masterId = 1
**.ue[99].macCellId = 1
**.ue[99].masterId = 1

# Scheduler
**.schedulingDisciplineUl = ${sched= "MAXCI"}
**.schedulingDisciplineDl = ${sched}

############### Scenario ###############

# eNodeB
**.eNB.cellularNic.channelModel[*].scenario = "URBAN_MACROCELL"

# UEs
**.ue[0].cellularNic.channelModel[*].scenario = "URBAN_MACROCELL"
**.ue[1].cellularNic.channelModel[*].scenario = "URBAN_MACROCELL"
**.ue[2].cellularNic.channelModel[*].scenario = "URBAN_MACROCELL"
**.ue[3].cellularNic.channelModel[*].scenario = "URBAN_MACROCELL"
**.ue[4].cellularNic.channelModel[*].scenario = "URBAN_MACROCELL"
**.ue[5].cellularNic.channelModel[*].scenario = "URBAN_MACROCELL"
**.ue[6].cellularNic.channelModel[*].scenario = "URBAN_MACROCELL"
**.ue[7].cellularNic.channelModel[*].scenario = "URBAN_MACROCELL"
**.ue[8].cellularNic.channelModel[*].scenario = "URBAN_MACROCELL"
**.ue[9].cellularNic.channelModel[*].scenario = "URBAN_MACROCELL"
**.ue[10].cellularNic.channelModel[*].scenario = "URBAN_MACROCELL"
**.ue[11].cellularNic.channelModel[*].scenario = "URBAN_MACROCELL"
**.ue[12].cellularNic.channelModel[*].scenario = "URBAN_MACROCELL"
**.ue[13].cellularNic.channelModel[*].scenario = "URBAN_MACROCELL"
**.ue[14].cellularNic.channelModel[*].scenario = "URBAN_MACROCELL"
**.ue[15].cellularNic.channelModel[*].scenario = "URBAN_MACROCELL"
**.ue[16].cellularNic.channelModel[*].scenario = "URBAN_MACROCELL"
**.ue[17].cellularNic.channelModel[*].scenario = "URBAN_MACROCELL"
**.ue[18].cellularNic.channelModel[*].scenario = "URBAN_MACROCELL"
**.ue[19].cellularNic.channelModel[*].scenario = "URBAN_MACROCELL"
**.ue[20].cellularNic.channelModel[*].scenario = "URBAN_MACROCELL"
**.ue[21].cellularNic.channelModel[*].scenario = "URBAN_MACROCELL"
**.ue[22].cellularNic.channelModel[*].scenario = "URBAN_MACROCELL"
**.ue[23].cellularNic.channelModel[*].scenario = "URBAN_MACROCELL"
**.ue[24].cellularNic.channelModel[*].scenario = "URBAN_MACROCELL"
**.ue[25].cellularNic.channelModel[*].scenario = "URBAN_MACROCELL"
**.ue[26].cellularNic.channelModel[*].scenario = "URBAN_MACROCELL"
**.ue[27].cellularNic.channelModel[*].scenario = "URBAN_MACROCELL"
**.ue[28].cellularNic.channelModel[*].scenario = "URBAN_MACROCELL"
**.ue[29].cellularNic.channelModel[*].scenario = "URBAN_MACROCELL"
**.ue[30].cellularNic.channelModel[*].scenario = "URBAN_MACROCELL"
**.ue[31].cellularNic.channelModel[*].scenario = "URBAN_MACROCELL"
**.ue[32].cellularNic.channelModel[*].scenario = "URBAN_MACROCELL"
**.ue[33].cellularNic.channelModel[*].scenario = "URBAN_MACROCELL"
**.ue[34].cellularNic.channelModel[*].scenario = "URBAN_MACROCELL"
**.ue[35].cellularNic.channelModel[*].scenario = "URBAN_MACROCELL"
**.ue[36].cellularNic.channelModel[*].scenario = "URBAN_MACROCELL"
**.ue[37].cellularNic.channelModel[*].scenario = "URBAN_MACROCELL"
**.ue[38].cellularNic.channelModel[*].scenario = "URBAN_MACROCELL"
**.ue[39].cellularNic.channelModel[*].scenario = "URBAN_MACROCELL"
**.ue[40].cellularNic.channelModel[*].scenario = "URBAN_MACROCELL"
**.ue[41].cellularNic.channelModel[*].scenario = "URBAN_MACROCELL"
**.ue[42].cellularNic.channelModel[*].scenario = "URBAN_MACROCELL"
**.ue[43].cellularNic.channelModel[*].scenario = "URBAN_MACROCELL"
**.ue[44].cellularNic.channelModel[*].scenario = "URBAN_MACROCELL"
**.ue[45].cellularNic.channelModel[*].scenario = "URBAN_MACROCELL"
**.ue[46].cellularNic.channelModel[*].scenario = "URBAN_MACROCELL"
**.ue[47].cellularNic.channelModel[*].scenario = "URBAN_MACROCELL"
**.ue[48].cellularNic.channelModel[*].scenario = "URBAN_MACROCELL"
**.ue[49].cellularNic.channelModel[*].scenario = "URBAN_MACROCELL"
**.ue[50].cellularNic.channelModel[*].scenario = "URBAN_MACROCELL"
**.ue[51].cellularNic.channelModel[*].scenario = "URBAN_MACROCELL"
**.ue[52].cellularNic.channelModel[*].scenario = "URBAN_MACROCELL"
**.ue[53].cellularNic.channelModel[*].scenario = "URBAN_MACROCELL"
**.ue[54].cellularNic.channelModel[*].scenario = "URBAN_MACROCELL"
**.ue[55].cellularNic.channelModel[*].scenario = "URBAN_MACROCELL"
**.ue[56].cellularNic.channelModel[*].scenario = "URBAN_MACROCELL"
**.ue[57].cellularNic.channelModel[*].scenario = "URBAN_MACROCELL"
**.ue[58].cellularNic.channelModel[*].scenario = "URBAN_MACROCELL"
**.ue[59].cellularNic.channelModel[*].scenario = "URBAN_MACROCELL"
**.ue[60].cellularNic.channelModel[*].scenario = "URBAN_MACROCELL"
**.ue[61].cellularNic.channelModel[*].scenario = "URBAN_MACROCELL"
**.ue[62].cellularNic.channelModel[*].scenario = "URBAN_MACROCELL"
**.ue[63].cellularNic.channelModel[*].scenario = "URBAN_MACROCELL"
**.ue[64].cellularNic.channelModel[*].scenario = "URBAN_MACROCELL"
**.ue[65].cellularNic.channelModel[*].scenario = "URBAN_MACROCELL"
**.ue[66].cellularNic.channelModel[*].scenario = "URBAN_MACROCELL"
**.ue[67].cellularNic.channelModel[*].scenario = "URBAN_MACROCELL"
**.ue[68].cellularNic.channelModel[*].scenario = "URBAN_MACROCELL"
**.ue[69].cellularNic.channelModel[*].scenario = "URBAN_MACROCELL"
**.ue[70].cellularNic.channelModel[*].scenario = "URBAN_MACROCELL"
**.ue[71].cellularNic.channelModel[*].scenario = "URBAN_MACROCELL"
**.ue[72].cellularNic.channelModel[*].scenario = "URBAN_MACROCELL"
**.ue[73].cellularNic.channelModel[*].scenario = "URBAN_MACROCELL"
**.ue[74].cellularNic.channelModel[*].scenario = "URBAN_MACROCELL"
**.ue[75].cellularNic.channelModel[*].scenario = "URBAN_MACROCELL"
**.ue[76].cellularNic.channelModel[*].scenario = "URBAN_MACROCELL"
**.ue[77].cellularNic.channelModel[*].scenario = "URBAN_MACROCELL"
**.ue[78].cellularNic.channelModel[*].scenario = "URBAN_MACROCELL"
**.ue[79].cellularNic.channelModel[*].scenario = "URBAN_MACROCELL"
**.ue[80].cellularNic.channelModel[*].scenario = "URBAN_MACROCELL"
**.ue[81].cellularNic.channelModel[*].scenario = "URBAN_MACROCELL"
**.ue[82].cellularNic.channelModel[*].scenario = "URBAN_MACROCELL"
**.ue[83].cellularNic.channelModel[*].scenario = "URBAN_MACROCELL"
**.ue[84].cellularNic.channelModel[*].scenario = "URBAN_MACROCELL"
**.ue[85].cellularNic.channelModel[*].scenario = "URBAN_MACROCELL"
**.ue[86].cellularNic.channelModel[*].scenario = "URBAN_MACROCELL"
**.ue[87].cellularNic.channelModel[*].scenario = "URBAN_MACROCELL"
**.ue[88].cellularNic.channelModel[*].scenario = "URBAN_MACROCELL"
**.ue[89].cellularNic.channelModel[*].scenario = "URBAN_MACROCELL"
**.ue[90].cellularNic.channelModel[*].scenario = "URBAN_MACROCELL"
**.ue[91].cellularNic.channelModel[*].scenario = "URBAN_MACROCELL"
**.ue[92].cellularNic.channelModel[*].scenario = "URBAN_MACROCELL"
**.ue[93].cellularNic.channelModel[*].scenario = "URBAN_MACROCELL"
**.ue[94].cellularNic.channelModel[*].scenario = "URBAN_MACROCELL"
**.ue[95].cellularNic.channelModel[*].scenario = "URBAN_MACROCELL"
**.ue[96].cellularNic.channelModel[*].scenario = "URBAN_MACROCELL"
**.ue[97].cellularNic.channelModel[*].scenario = "URBAN_MACROCELL"
**.ue[98].cellularNic.channelModel[*].scenario = "URBAN_MACROCELL"
**.ue[99].cellularNic.channelModel[*].scenario = "URBAN_MACROCELL"

############### Mobility ###############

# eNodeB
*.eNB.mobility.initialX = ${iniX= 50.0m, 150.0m, 250.0m, 350.0m, 450.0m, 550.0m, 650.0m, 750.0m, 850.0m, 950.0m}
*.eNB.mobility.initialY = ${iniY= 50.0m, 150.0m, 250.0m, 350.0m, 450.0m, 550.0m, 650.0m, 750.0m, 850.0m, 950.0m}
*.eNB.mobility.initialZ = ${iniZ= 25m}
*.eNB.mobility.initFromDisplayString = false
*.eNB*.mobility.constraintAreaMaxX = 1000 m
*.eNB*.mobility.constraintAreaMaxY = 1000 m
*.eNB*.mobility.constraintAreaMaxZ = inf m
*.eNB*.mobility.constraintAreaMinX = 0 m
*.eNB*.mobility.constraintAreaMinY = 0 m
*.eNB*.mobility.constraintAreaMinZ = -inf m

# UEs

*.ue[*].mobilityType = "StationaryMobility"
*.ue[0].mobility.initialX = 50.0m
*.ue[0].mobility.initialY = 50.0m
*.ue[0].mobility.initialZ = 1.5m
*.ue[0].mobility.initFromDisplayString = false
*.ue[1].mobility.initialX = 150.0m
*.ue[1].mobility.initialY = 50.0m
*.ue[1].mobility.initialZ = 1.5m
*.ue[1].mobility.initFromDisplayString = false
*.ue[2].mobility.initialX = 250.0m
*.ue[2].mobility.initialY = 50.0m
*.ue[2].mobility.initialZ = 1.5m
*.ue[2].mobility.initFromDisplayString = false
*.ue[3].mobility.initialX = 350.0m
*.ue[3].mobility.initialY = 50.0m
*.ue[3].mobility.initialZ = 1.5m
*.ue[3].mobility.initFromDisplayString = false
*.ue[4].mobility.initialX = 450.0m
*.ue[4].mobility.initialY = 50.0m
*.ue[4].mobility.initialZ = 1.5m
*.ue[4].mobility.initFromDisplayString = false
*.ue[5].mobility.initialX = 550.0m
*.ue[5].mobility.initialY = 50.0m
*.ue[5].mobility.initialZ = 1.5m
*.ue[5].mobility.initFromDisplayString = false
*.ue[6].mobility.initialX = 650.0m
*.ue[6].mobility.initialY = 50.0m
*.ue[6].mobility.initialZ = 1.5m
*.ue[6].mobility.initFromDisplayString = false
*.ue[7].mobility.initialX = 750.0m
*.ue[7].mobility.initialY = 50.0m
*.ue[7].mobility.initialZ = 1.5m
*.ue[7].mobility.initFromDisplayString = false
*.ue[8].mobility.initialX = 850.0m
*.ue[8].mobility.initialY = 50.0m
*.ue[8].mobility.initialZ = 1.5m
*.ue[8].mobility.initFromDisplayString = false
*.ue[9].mobility.initialX = 950.0m
*.ue[9].mobility.initialY = 50.0m
*.ue[9].mobility.initialZ = 1.5m
*.ue[9].mobility.initFromDisplayString = false
*.ue[10].mobility.initialX = 50.0m
*.ue[10].mobility.initialY = 150.0m
*.ue[10].mobility.initialZ = 1.5m
*.ue[10].mobility.initFromDisplayString = false
*.ue[11].mobility.initialX = 150.0m
*.ue[11].mobility.initialY = 150.0m
*.ue[11].mobility.initialZ = 1.5m
*.ue[11].mobility.initFromDisplayString = false
*.ue[12].mobility.initialX = 250.0m
*.ue[12].mobility.initialY = 150.0m
*.ue[12].mobility.initialZ = 1.5m
*.ue[12].mobility.initFromDisplayString = false
*.ue[13].mobility.initialX = 350.0m
*.ue[13].mobility.initialY = 150.0m
*.ue[13].mobility.initialZ = 1.5m
*.ue[13].mobility.initFromDisplayString = false
*.ue[14].mobility.initialX = 450.0m
*.ue[14].mobility.initialY = 150.0m
*.ue[14].mobility.initialZ = 1.5m
*.ue[14].mobility.initFromDisplayString = false
*.ue[15].mobility.initialX = 550.0m
*.ue[15].mobility.initialY = 150.0m
*.ue[15].mobility.initialZ = 1.5m
*.ue[15].mobility.initFromDisplayString = false
*.ue[16].mobility.initialX = 650.0m
*.ue[16].mobility.initialY = 150.0m
*.ue[16].mobility.initialZ = 1.5m
*.ue[16].mobility.initFromDisplayString = false
*.ue[17].mobility.initialX = 750.0m
*.ue[17].mobility.initialY = 150.0m
*.ue[17].mobility.initialZ = 1.5m
*.ue[17].mobility.initFromDisplayString = false
*.ue[18].mobility.initialX = 850.0m
*.ue[18].mobility.initialY = 150.0m
*.ue[18].mobility.initialZ = 1.5m
*.ue[18].mobility.initFromDisplayString = false
*.ue[19].mobility.initialX = 950.0m
*.ue[19].mobility.initialY = 150.0m
*.ue[19].mobility.initialZ = 1.5m
*.ue[19].mobility.initFromDisplayString = false
*.ue[20].mobility.initialX = 50.0m
*.ue[20].mobility.initialY = 250.0m
*.ue[20].mobility.initialZ = 1.5m
*.ue[20].mobility.initFromDisplayString = false
*.ue[21].mobility.initialX = 150.0m
*.ue[21].mobility.initialY = 250.0m
*.ue[21].mobility.initialZ = 1.5m
*.ue[21].mobility.initFromDisplayString = false
*.ue[22].mobility.initialX = 250.0m
*.ue[22].mobility.initialY = 250.0m
*.ue[22].mobility.initialZ = 1.5m
*.ue[22].mobility.initFromDisplayString = false
*.ue[23].mobility.initialX = 350.0m
*.ue[23].mobility.initialY = 250.0m
*.ue[23].mobility.initialZ = 1.5m
*.ue[23].mobility.initFromDisplayString = false
*.ue[24].mobility.initialX = 450.0m
*.ue[24].mobility.initialY = 250.0m
*.ue[24].mobility.initialZ = 1.5m
*.ue[24].mobility.initFromDisplayString = false
*.ue[25].mobility.initialX = 550.0m
*.ue[25].mobility.initialY = 250.0m
*.ue[25].mobility.initialZ = 1.5m
*.ue[25].mobility.initFromDisplayString = false
*.ue[26].mobility.initialX = 650.0m
*.ue[26].mobility.initialY = 250.0m
*.ue[26].mobility.initialZ = 1.5m
*.ue[26].mobility.initFromDisplayString = false
*.ue[27].mobility.initialX = 750.0m
*.ue[27].mobility.initialY = 250.0m
*.ue[27].mobility.initialZ = 1.5m
*.ue[27].mobility.initFromDisplayString = false
*.ue[28].mobility.initialX = 850.0m
*.ue[28].mobility.initialY = 250.0m
*.ue[28].mobility.initialZ = 1.5m
*.ue[28].mobility.initFromDisplayString = false
*.ue[29].mobility.initialX = 950.0m
*.ue[29].mobility.initialY = 250.0m
*.ue[29].mobility.initialZ = 1.5m
*.ue[29].mobility.initFromDisplayString = false
*.ue[30].mobility.initialX = 50.0m
*.ue[30].mobility.initialY = 350.0m
*.ue[30].mobility.initialZ = 1.5m
*.ue[30].mobility.initFromDisplayString = false
*.ue[31].mobility.initialX = 150.0m
*.ue[31].mobility.initialY = 350.0m
*.ue[31].mobility.initialZ = 1.5m
*.ue[31].mobility.initFromDisplayString = false
*.ue[32].mobility.initialX = 250.0m
*.ue[32].mobility.initialY = 350.0m
*.ue[32].mobility.initialZ = 1.5m
*.ue[32].mobility.initFromDisplayString = false
*.ue[33].mobility.initialX = 350.0m
*.ue[33].mobility.initialY = 350.0m
*.ue[33].mobility.initialZ = 1.5m
*.ue[33].mobility.initFromDisplayString = false
*.ue[34].mobility.initialX = 450.0m
*.ue[34].mobility.initialY = 350.0m
*.ue[34].mobility.initialZ = 1.5m
*.ue[34].mobility.initFromDisplayString = false
*.ue[35].mobility.initialX = 550.0m
*.ue[35].mobility.initialY = 350.0m
*.ue[35].mobility.initialZ = 1.5m
*.ue[35].mobility.initFromDisplayString = false
*.ue[36].mobility.initialX = 650.0m
*.ue[36].mobility.initialY = 350.0m
*.ue[36].mobility.initialZ = 1.5m
*.ue[36].mobility.initFromDisplayString = false
*.ue[37].mobility.initialX = 750.0m
*.ue[37].mobility.initialY = 350.0m
*.ue[37].mobility.initialZ = 1.5m
*.ue[37].mobility.initFromDisplayString = false
*.ue[38].mobility.initialX = 850.0m
*.ue[38].mobility.initialY = 350.0m
*.ue[38].mobility.initialZ = 1.5m
*.ue[38].mobility.initFromDisplayString = false
*.ue[39].mobility.initialX = 950.0m
*.ue[39].mobility.initialY = 350.0m
*.ue[39].mobility.initialZ = 1.5m
*.ue[39].mobility.initFromDisplayString = false
*.ue[40].mobility.initialX = 50.0m
*.ue[40].mobility.initialY = 450.0m
*.ue[40].mobility.initialZ = 1.5m
*.ue[40].mobility.initFromDisplayString = false
*.ue[41].mobility.initialX = 150.0m
*.ue[41].mobility.initialY = 450.0m
*.ue[41].mobility.initialZ = 1.5m
*.ue[41].mobility.initFromDisplayString = false
*.ue[42].mobility.initialX = 250.0m
*.ue[42].mobility.initialY = 450.0m
*.ue[42].mobility.initialZ = 1.5m
*.ue[42].mobility.initFromDisplayString = false
*.ue[43].mobility.initialX = 350.0m
*.ue[43].mobility.initialY = 450.0m
*.ue[43].mobility.initialZ = 1.5m
*.ue[43].mobility.initFromDisplayString = false
*.ue[44].mobility.initialX = 450.0m
*.ue[44].mobility.initialY = 450.0m
*.ue[44].mobility.initialZ = 1.5m
*.ue[44].mobility.initFromDisplayString = false
*.ue[45].mobility.initialX = 550.0m
*.ue[45].mobility.initialY = 450.0m
*.ue[45].mobility.initialZ = 1.5m
*.ue[45].mobility.initFromDisplayString = false
*.ue[46].mobility.initialX = 650.0m
*.ue[46].mobility.initialY = 450.0m
*.ue[46].mobility.initialZ = 1.5m
*.ue[46].mobility.initFromDisplayString = false
*.ue[47].mobility.initialX = 750.0m
*.ue[47].mobility.initialY = 450.0m
*.ue[47].mobility.initialZ = 1.5m
*.ue[47].mobility.initFromDisplayString = false
*.ue[48].mobility.initialX = 850.0m
*.ue[48].mobility.initialY = 450.0m
*.ue[48].mobility.initialZ = 1.5m
*.ue[48].mobility.initFromDisplayString = false
*.ue[49].mobility.initialX = 950.0m
*.ue[49].mobility.initialY = 450.0m
*.ue[49].mobility.initialZ = 1.5m
*.ue[49].mobility.initFromDisplayString = false
*.ue[50].mobility.initialX = 50.0m
*.ue[50].mobility.initialY = 550.0m
*.ue[50].mobility.initialZ = 1.5m
*.ue[50].mobility.initFromDisplayString = false
*.ue[51].mobility.initialX = 150.0m
*.ue[51].mobility.initialY = 550.0m
*.ue[51].mobility.initialZ = 1.5m
*.ue[51].mobility.initFromDisplayString = false
*.ue[52].mobility.initialX = 250.0m
*.ue[52].mobility.initialY = 550.0m
*.ue[52].mobility.initialZ = 1.5m
*.ue[52].mobility.initFromDisplayString = false
*.ue[53].mobility.initialX = 350.0m
*.ue[53].mobility.initialY = 550.0m
*.ue[53].mobility.initialZ = 1.5m
*.ue[53].mobility.initFromDisplayString = false
*.ue[54].mobility.initialX = 450.0m
*.ue[54].mobility.initialY = 550.0m
*.ue[54].mobility.initialZ = 1.5m
*.ue[54].mobility.initFromDisplayString = false
*.ue[55].mobility.initialX = 550.0m
*.ue[55].mobility.initialY = 550.0m
*.ue[55].mobility.initialZ = 1.5m
*.ue[55].mobility.initFromDisplayString = false
*.ue[56].mobility.initialX = 650.0m
*.ue[56].mobility.initialY = 550.0m
*.ue[56].mobility.initialZ = 1.5m
*.ue[56].mobility.initFromDisplayString = false
*.ue[57].mobility.initialX = 750.0m
*.ue[57].mobility.initialY = 550.0m
*.ue[57].mobility.initialZ = 1.5m
*.ue[57].mobility.initFromDisplayString = false
*.ue[58].mobility.initialX = 850.0m
*.ue[58].mobility.initialY = 550.0m
*.ue[58].mobility.initialZ = 1.5m
*.ue[58].mobility.initFromDisplayString = false
*.ue[59].mobility.initialX = 950.0m
*.ue[59].mobility.initialY = 550.0m
*.ue[59].mobility.initialZ = 1.5m
*.ue[59].mobility.initFromDisplayString = false
*.ue[60].mobility.initialX = 50.0m
*.ue[60].mobility.initialY = 650.0m
*.ue[60].mobility.initialZ = 1.5m
*.ue[60].mobility.initFromDisplayString = false
*.ue[61].mobility.initialX = 150.0m
*.ue[61].mobility.initialY = 650.0m
*.ue[61].mobility.initialZ = 1.5m
*.ue[61].mobility.initFromDisplayString = false
*.ue[62].mobility.initialX = 250.0m
*.ue[62].mobility.initialY = 650.0m
*.ue[62].mobility.initialZ = 1.5m
*.ue[62].mobility.initFromDisplayString = false
*.ue[63].mobility.initialX = 350.0m
*.ue[63].mobility.initialY = 650.0m
*.ue[63].mobility.initialZ = 1.5m
*.ue[63].mobility.initFromDisplayString = false
*.ue[64].mobility.initialX = 450.0m
*.ue[64].mobility.initialY = 650.0m
*.ue[64].mobility.initialZ = 1.5m
*.ue[64].mobility.initFromDisplayString = false
*.ue[65].mobility.initialX = 550.0m
*.ue[65].mobility.initialY = 650.0m
*.ue[65].mobility.initialZ = 1.5m
*.ue[65].mobility.initFromDisplayString = false
*.ue[66].mobility.initialX = 650.0m
*.ue[66].mobility.initialY = 650.0m
*.ue[66].mobility.initialZ = 1.5m
*.ue[66].mobility.initFromDisplayString = false
*.ue[67].mobility.initialX = 750.0m
*.ue[67].mobility.initialY = 650.0m
*.ue[67].mobility.initialZ = 1.5m
*.ue[67].mobility.initFromDisplayString = false
*.ue[68].mobility.initialX = 850.0m
*.ue[68].mobility.initialY = 650.0m
*.ue[68].mobility.initialZ = 1.5m
*.ue[68].mobility.initFromDisplayString = false
*.ue[69].mobility.initialX = 950.0m
*.ue[69].mobility.initialY = 650.0m
*.ue[69].mobility.initialZ = 1.5m
*.ue[69].mobility.initFromDisplayString = false
*.ue[70].mobility.initialX = 50.0m
*.ue[70].mobility.initialY = 750.0m
*.ue[70].mobility.initialZ = 1.5m
*.ue[70].mobility.initFromDisplayString = false
*.ue[71].mobility.initialX = 150.0m
*.ue[71].mobility.initialY = 750.0m
*.ue[71].mobility.initialZ = 1.5m
*.ue[71].mobility.initFromDisplayString = false
*.ue[72].mobility.initialX = 250.0m
*.ue[72].mobility.initialY = 750.0m
*.ue[72].mobility.initialZ = 1.5m
*.ue[72].mobility.initFromDisplayString = false
*.ue[73].mobility.initialX = 350.0m
*.ue[73].mobility.initialY = 750.0m
*.ue[73].mobility.initialZ = 1.5m
*.ue[73].mobility.initFromDisplayString = false
*.ue[74].mobility.initialX = 450.0m
*.ue[74].mobility.initialY = 750.0m
*.ue[74].mobility.initialZ = 1.5m
*.ue[74].mobility.initFromDisplayString = false
*.ue[75].mobility.initialX = 550.0m
*.ue[75].mobility.initialY = 750.0m
*.ue[75].mobility.initialZ = 1.5m
*.ue[75].mobility.initFromDisplayString = false
*.ue[76].mobility.initialX = 650.0m
*.ue[76].mobility.initialY = 750.0m
*.ue[76].mobility.initialZ = 1.5m
*.ue[76].mobility.initFromDisplayString = false
*.ue[77].mobility.initialX = 750.0m
*.ue[77].mobility.initialY = 750.0m
*.ue[77].mobility.initialZ = 1.5m
*.ue[77].mobility.initFromDisplayString = false
*.ue[78].mobility.initialX = 850.0m
*.ue[78].mobility.initialY = 750.0m
*.ue[78].mobility.initialZ = 1.5m
*.ue[78].mobility.initFromDisplayString = false
*.ue[79].mobility.initialX = 950.0m
*.ue[79].mobility.initialY = 750.0m
*.ue[79].mobility.initialZ = 1.5m
*.ue[79].mobility.initFromDisplayString = false
*.ue[80].mobility.initialX = 50.0m
*.ue[80].mobility.initialY = 850.0m
*.ue[80].mobility.initialZ = 1.5m
*.ue[80].mobility.initFromDisplayString = false
*.ue[81].mobility.initialX = 150.0m
*.ue[81].mobility.initialY = 850.0m
*.ue[81].mobility.initialZ = 1.5m
*.ue[81].mobility.initFromDisplayString = false
*.ue[82].mobility.initialX = 250.0m
*.ue[82].mobility.initialY = 850.0m
*.ue[82].mobility.initialZ = 1.5m
*.ue[82].mobility.initFromDisplayString = false
*.ue[83].mobility.initialX = 350.0m
*.ue[83].mobility.initialY = 850.0m
*.ue[83].mobility.initialZ = 1.5m
*.ue[83].mobility.initFromDisplayString = false
*.ue[84].mobility.initialX = 450.0m
*.ue[84].mobility.initialY = 850.0m
*.ue[84].mobility.initialZ = 1.5m
*.ue[84].mobility.initFromDisplayString = false
*.ue[85].mobility.initialX = 550.0m
*.ue[85].mobility.initialY = 850.0m
*.ue[85].mobility.initialZ = 1.5m
*.ue[85].mobility.initFromDisplayString = false
*.ue[86].mobility.initialX = 650.0m
*.ue[86].mobility.initialY = 850.0m
*.ue[86].mobility.initialZ = 1.5m
*.ue[86].mobility.initFromDisplayString = false
*.ue[87].mobility.initialX = 750.0m
*.ue[87].mobility.initialY = 850.0m
*.ue[87].mobility.initialZ = 1.5m
*.ue[87].mobility.initFromDisplayString = false
*.ue[88].mobility.initialX = 850.0m
*.ue[88].mobility.initialY = 850.0m
*.ue[88].mobility.initialZ = 1.5m
*.ue[88].mobility.initFromDisplayString = false
*.ue[89].mobility.initialX = 950.0m
*.ue[89].mobility.initialY = 850.0m
*.ue[89].mobility.initialZ = 1.5m
*.ue[89].mobility.initFromDisplayString = false
*.ue[90].mobility.initialX = 50.0m
*.ue[90].mobility.initialY = 950.0m
*.ue[90].mobility.initialZ = 1.5m
*.ue[90].mobility.initFromDisplayString = false
*.ue[91].mobility.initialX = 150.0m
*.ue[91].mobility.initialY = 950.0m
*.ue[91].mobility.initialZ = 1.5m
*.ue[91].mobility.initFromDisplayString = false
*.ue[92].mobility.initialX = 250.0m
*.ue[92].mobility.initialY = 950.0m
*.ue[92].mobility.initialZ = 1.5m
*.ue[92].mobility.initFromDisplayString = false
*.ue[93].mobility.initialX = 350.0m
*.ue[93].mobility.initialY = 950.0m
*.ue[93].mobility.initialZ = 1.5m
*.ue[93].mobility.initFromDisplayString = false
*.ue[94].mobility.initialX = 450.0m
*.ue[94].mobility.initialY = 950.0m
*.ue[94].mobility.initialZ = 1.5m
*.ue[94].mobility.initFromDisplayString = false
*.ue[95].mobility.initialX = 550.0m
*.ue[95].mobility.initialY = 950.0m
*.ue[95].mobility.initialZ = 1.5m
*.ue[95].mobility.initFromDisplayString = false
*.ue[96].mobility.initialX = 650.0m
*.ue[96].mobility.initialY = 950.0m
*.ue[96].mobility.initialZ = 1.5m
*.ue[96].mobility.initFromDisplayString = false
*.ue[97].mobility.initialX = 750.0m
*.ue[97].mobility.initialY = 950.0m
*.ue[97].mobility.initialZ = 1.5m
*.ue[97].mobility.initFromDisplayString = false
*.ue[98].mobility.initialX = 850.0m
*.ue[98].mobility.initialY = 950.0m
*.ue[98].mobility.initialZ = 1.5m
*.ue[98].mobility.initFromDisplayString = false
*.ue[99].mobility.initialX = 950.0m
*.ue[99].mobility.initialY = 950.0m
*.ue[99].mobility.initialZ = 1.5m
*.ue[99].mobility.initFromDisplayString = false
*.ue[*].mobility.constraintAreaMaxX = 1000 m
*.ue[*].mobility.constraintAreaMaxY = 1000 m
*.ue[*].mobility.constraintAreaMaxZ = inf m
*.ue[*].mobility.constraintAreaMinX = 0 m
*.ue[*].mobility.constraintAreaMinY = 0 m
*.ue[*].mobility.constraintAreaMinZ = -inf m

############### Apps ###############
*.ue[*].numApps = 2
*.server.numApps = 2 * 100 * 1

# VoIP UL
*.ue[*].app[0].typename="VoIPSender"
*.ue[*].app[0].PacketSize = default
*.ue[*].app[0].destAddress = "server"
*.ue[*].app[0].destPort = 4000 + ancestorIndex(1) #Pega o valor id de ue