#Function: ilp_move_users
#Parameters:
#   filename: ../Network_CCOpMv/_5G/simulations/ilp_move_users-13.ini
#   seed: 13
#   size_y: 4000
#   size_x: 4000
#   size_sector: 400
#   n_macros: 1
#   config_name: ilp_move_users
#   num_slices: 10
#Extra = Using 1 macros with 60 ues each.
[General]
sim-time-limit = 10s

############### Statistics ###############
output-scalar-file = ${resultdir}/${configname}/${repetition}.sca
output-vector-file = ${resultdir}/${configname}/${repetition}.vec
**.vector-recording = false
eventlog-file = ${resultdir}/${configname}/${repetition}.elog
seed-set = ${repetition}

[Config ilp_move_users]
network = _5G.networks.SimpleNet
sim-time-limit = 10s
repeat = 1
seed-set = ${repetition}
num-rngs = 2
seed-1-mt = 13

output-scalar-file = ${resultdir}/${configname}/${repetition}.sca
output-vector-file = ${resultdir}/${configname}/${repetition}.vec
**.vector-recording = false
eventlog-file = ${resultdir}/${configname}/${repetition}.elog

############### Snapshots ###############
snapshot-file = ../../../Functions/ilp_move_users-13.sna
**.snapshotter.snapshot = true
**.snapshotter.delay = 1

############### Transmission Power ###############
**.ueTxPower = 24
**.eNodeBTxPower = 46
**.microTxPower = 30
**.cellularNic.phy.txDirection = "OMNI"

############### Channel Control ###############
**.numComponentCarriers = 1
*.carrierAggregation.componentCarrier[0].carrierFrequency = 0.7GHz

############### Channel Model ###############
**.cellularNic.LteChannelModelType = "LteRealisticChannelModel"
**.cellularNic.channelModel[*].building_height = 20
**.cellularNic.channelModel[*].nodeb_height = 25
**.cellularNic.channelModel[*].ue_height = 1.5
**.cellularNic.channelModel[*].street_wide = 20
**.cellularNic.channelModel[*].fading_type = "JAKES"
**.cellularNic.channelModel[*].extCell_interference = false
**.cellularNic.channelModel[*].antennGainEnB = 18
**.cellularNic.channelModel[*].antennGainMicro = 5
**.cellularNic.channelModel[*].antennaGainUe = 0
**.cellularNic.channelModel[*].bs_noise_figure = 5
**.cellularNic.channelModel[*].cable_loss = 2
**.cellularNic.channelModel[*].componentCarrierIndex = 0
**.cellularNic.channelModel[*].correlation_distance = 50
**.cellularNic.channelModel[*].d2d_interference = true
**.cellularNic.channelModel[*].delay_rms = 363e-9
**.cellularNic.channelModel[*].downlink_interference = false
**.cellularNic.channelModel[*].dynamic_los = false
**.cellularNic.channelModel[*].enable_extCell_los = true
**.cellularNic.channelModel[*].fading = true
**.cellularNic.channelModel[*].fading_paths = 6
**.cellularNic.channelModel[*].fixed_los = false
**.cellularNic.channelModel[*].harqReduction = 0.2
**.cellularNic.channelModel[*].inside_building = false
**.cellularNic.channelModel[*].lambdaMaxTh = 0.2
**.cellularNic.channelModel[*].lambdaMinTh = 0.02
**.cellularNic.channelModel[*].lambdaRatioTh = 20
**.cellularNic.channelModel[*].rsrqScale = 1.0
**.cellularNic.channelModel[*].rsrqShift = 22
**.cellularNic.channelModel[*].shadowing = true
**.cellularNic.channelModel[*].targetBler = 0.01
**.cellularNic.channelModel[*].thermalNoise = -104.5
**.cellularNic.channelModel[*].tolerateMaxDistViolation = true
**.cellularNic.channelModel[*].ue_noise_figure = 7
**.cellularNic.channelModel[*].uplink_interference = false
**.cellularNic.channelModel[*].useRsrqFromLog = false
**.cellularNic.channelModel[*].useTorus = false

############### Resource Blocks ###############
**.numBands = 6

############### UEs ###############
**.numUe = 60

# Conecting UEs to eNodeB
**.ue[0].macCellId = 1
**.ue[0].masterId = 1
**.ue[1].macCellId = 1
**.ue[1].masterId = 1
**.ue[2].macCellId = 1
**.ue[2].masterId = 1
**.ue[3].macCellId = 1
**.ue[3].masterId = 1
**.ue[4].macCellId = 1
**.ue[4].masterId = 1
**.ue[5].macCellId = 1
**.ue[5].masterId = 1
**.ue[6].macCellId = 1
**.ue[6].masterId = 1
**.ue[7].macCellId = 1
**.ue[7].masterId = 1
**.ue[8].macCellId = 1
**.ue[8].masterId = 1
**.ue[9].macCellId = 1
**.ue[9].masterId = 1
**.ue[10].macCellId = 1
**.ue[10].masterId = 1
**.ue[11].macCellId = 1
**.ue[11].masterId = 1
**.ue[12].macCellId = 1
**.ue[12].masterId = 1
**.ue[13].macCellId = 1
**.ue[13].masterId = 1
**.ue[14].macCellId = 1
**.ue[14].masterId = 1
**.ue[15].macCellId = 1
**.ue[15].masterId = 1
**.ue[16].macCellId = 1
**.ue[16].masterId = 1
**.ue[17].macCellId = 1
**.ue[17].masterId = 1
**.ue[18].macCellId = 1
**.ue[18].masterId = 1
**.ue[19].macCellId = 1
**.ue[19].masterId = 1
**.ue[20].macCellId = 1
**.ue[20].masterId = 1
**.ue[21].macCellId = 1
**.ue[21].masterId = 1
**.ue[22].macCellId = 1
**.ue[22].masterId = 1
**.ue[23].macCellId = 1
**.ue[23].masterId = 1
**.ue[24].macCellId = 1
**.ue[24].masterId = 1
**.ue[25].macCellId = 1
**.ue[25].masterId = 1
**.ue[26].macCellId = 1
**.ue[26].masterId = 1
**.ue[27].macCellId = 1
**.ue[27].masterId = 1
**.ue[28].macCellId = 1
**.ue[28].masterId = 1
**.ue[29].macCellId = 1
**.ue[29].masterId = 1
**.ue[30].macCellId = 1
**.ue[30].masterId = 1
**.ue[31].macCellId = 1
**.ue[31].masterId = 1
**.ue[32].macCellId = 1
**.ue[32].masterId = 1
**.ue[33].macCellId = 1
**.ue[33].masterId = 1
**.ue[34].macCellId = 1
**.ue[34].masterId = 1
**.ue[35].macCellId = 1
**.ue[35].masterId = 1
**.ue[36].macCellId = 1
**.ue[36].masterId = 1
**.ue[37].macCellId = 1
**.ue[37].masterId = 1
**.ue[38].macCellId = 1
**.ue[38].masterId = 1
**.ue[39].macCellId = 1
**.ue[39].masterId = 1
**.ue[40].macCellId = 1
**.ue[40].masterId = 1
**.ue[41].macCellId = 1
**.ue[41].masterId = 1
**.ue[42].macCellId = 1
**.ue[42].masterId = 1
**.ue[43].macCellId = 1
**.ue[43].masterId = 1
**.ue[44].macCellId = 1
**.ue[44].masterId = 1
**.ue[45].macCellId = 1
**.ue[45].masterId = 1
**.ue[46].macCellId = 1
**.ue[46].masterId = 1
**.ue[47].macCellId = 1
**.ue[47].masterId = 1
**.ue[48].macCellId = 1
**.ue[48].masterId = 1
**.ue[49].macCellId = 1
**.ue[49].masterId = 1
**.ue[50].macCellId = 1
**.ue[50].masterId = 1
**.ue[51].macCellId = 1
**.ue[51].masterId = 1
**.ue[52].macCellId = 1
**.ue[52].masterId = 1
**.ue[53].macCellId = 1
**.ue[53].masterId = 1
**.ue[54].macCellId = 1
**.ue[54].masterId = 1
**.ue[55].macCellId = 1
**.ue[55].masterId = 1
**.ue[56].macCellId = 1
**.ue[56].masterId = 1
**.ue[57].macCellId = 1
**.ue[57].masterId = 1
**.ue[58].macCellId = 1
**.ue[58].masterId = 1
**.ue[59].macCellId = 1
**.ue[59].masterId = 1

# Scheduler
**.schedulingDisciplineUl = ${sched= "MAXCI"}
**.schedulingDisciplineDl = ${sched}

############### Scenario ###############

# UEs
**.ue[0].cellularNic.channelModel[*].scenario = "URBAN_MACROCELL"
**.ue[1].cellularNic.channelModel[*].scenario = "URBAN_MACROCELL"
**.ue[2].cellularNic.channelModel[*].scenario = "URBAN_MACROCELL"
**.ue[3].cellularNic.channelModel[*].scenario = "URBAN_MACROCELL"
**.ue[4].cellularNic.channelModel[*].scenario = "URBAN_MACROCELL"
**.ue[5].cellularNic.channelModel[*].scenario = "URBAN_MACROCELL"
**.ue[6].cellularNic.channelModel[*].scenario = "URBAN_MACROCELL"
**.ue[7].cellularNic.channelModel[*].scenario = "URBAN_MACROCELL"
**.ue[8].cellularNic.channelModel[*].scenario = "URBAN_MACROCELL"
**.ue[9].cellularNic.channelModel[*].scenario = "URBAN_MACROCELL"
**.ue[10].cellularNic.channelModel[*].scenario = "URBAN_MACROCELL"
**.ue[11].cellularNic.channelModel[*].scenario = "URBAN_MACROCELL"
**.ue[12].cellularNic.channelModel[*].scenario = "URBAN_MACROCELL"
**.ue[13].cellularNic.channelModel[*].scenario = "URBAN_MACROCELL"
**.ue[14].cellularNic.channelModel[*].scenario = "URBAN_MACROCELL"
**.ue[15].cellularNic.channelModel[*].scenario = "URBAN_MACROCELL"
**.ue[16].cellularNic.channelModel[*].scenario = "URBAN_MACROCELL"
**.ue[17].cellularNic.channelModel[*].scenario = "URBAN_MACROCELL"
**.ue[18].cellularNic.channelModel[*].scenario = "URBAN_MACROCELL"
**.ue[19].cellularNic.channelModel[*].scenario = "URBAN_MACROCELL"
**.ue[20].cellularNic.channelModel[*].scenario = "URBAN_MACROCELL"
**.ue[21].cellularNic.channelModel[*].scenario = "URBAN_MACROCELL"
**.ue[22].cellularNic.channelModel[*].scenario = "URBAN_MACROCELL"
**.ue[23].cellularNic.channelModel[*].scenario = "URBAN_MACROCELL"
**.ue[24].cellularNic.channelModel[*].scenario = "URBAN_MACROCELL"
**.ue[25].cellularNic.channelModel[*].scenario = "URBAN_MACROCELL"
**.ue[26].cellularNic.channelModel[*].scenario = "URBAN_MACROCELL"
**.ue[27].cellularNic.channelModel[*].scenario = "URBAN_MACROCELL"
**.ue[28].cellularNic.channelModel[*].scenario = "URBAN_MACROCELL"
**.ue[29].cellularNic.channelModel[*].scenario = "URBAN_MACROCELL"
**.ue[30].cellularNic.channelModel[*].scenario = "URBAN_MACROCELL"
**.ue[31].cellularNic.channelModel[*].scenario = "URBAN_MACROCELL"
**.ue[32].cellularNic.channelModel[*].scenario = "URBAN_MACROCELL"
**.ue[33].cellularNic.channelModel[*].scenario = "URBAN_MACROCELL"
**.ue[34].cellularNic.channelModel[*].scenario = "URBAN_MACROCELL"
**.ue[35].cellularNic.channelModel[*].scenario = "URBAN_MACROCELL"
**.ue[36].cellularNic.channelModel[*].scenario = "URBAN_MACROCELL"
**.ue[37].cellularNic.channelModel[*].scenario = "URBAN_MACROCELL"
**.ue[38].cellularNic.channelModel[*].scenario = "URBAN_MACROCELL"
**.ue[39].cellularNic.channelModel[*].scenario = "URBAN_MACROCELL"
**.ue[40].cellularNic.channelModel[*].scenario = "URBAN_MACROCELL"
**.ue[41].cellularNic.channelModel[*].scenario = "URBAN_MACROCELL"
**.ue[42].cellularNic.channelModel[*].scenario = "URBAN_MACROCELL"
**.ue[43].cellularNic.channelModel[*].scenario = "URBAN_MACROCELL"
**.ue[44].cellularNic.channelModel[*].scenario = "URBAN_MACROCELL"
**.ue[45].cellularNic.channelModel[*].scenario = "URBAN_MACROCELL"
**.ue[46].cellularNic.channelModel[*].scenario = "URBAN_MACROCELL"
**.ue[47].cellularNic.channelModel[*].scenario = "URBAN_MACROCELL"
**.ue[48].cellularNic.channelModel[*].scenario = "URBAN_MACROCELL"
**.ue[49].cellularNic.channelModel[*].scenario = "URBAN_MACROCELL"
**.ue[50].cellularNic.channelModel[*].scenario = "URBAN_MACROCELL"
**.ue[51].cellularNic.channelModel[*].scenario = "URBAN_MACROCELL"
**.ue[52].cellularNic.channelModel[*].scenario = "URBAN_MACROCELL"
**.ue[53].cellularNic.channelModel[*].scenario = "URBAN_MACROCELL"
**.ue[54].cellularNic.channelModel[*].scenario = "URBAN_MACROCELL"
**.ue[55].cellularNic.channelModel[*].scenario = "URBAN_MACROCELL"
**.ue[56].cellularNic.channelModel[*].scenario = "URBAN_MACROCELL"
**.ue[57].cellularNic.channelModel[*].scenario = "URBAN_MACROCELL"
**.ue[58].cellularNic.channelModel[*].scenario = "URBAN_MACROCELL"
**.ue[59].cellularNic.channelModel[*].scenario = "URBAN_MACROCELL"

############### Mobility ###############

# UEs

*.ue[*].mobilityType = "VariableSpeedMobility"
*.ue[*].mobility.changeInterval = 1s
*.ue[*].mobility.meanSpeed = 3000mps
*.ue[*].mobility.standardDeviation = 1000
*.ue[0].mobility.initialX = 1486.626018023879m
*.ue[0].mobility.initialY = 2297.060306631845m
*.ue[0].mobility.initialZ = 0m
*.ue[0].mobility.initFromDisplayString = false
*.ue[1].mobility.initialX = 1473.4871451495017m
*.ue[1].mobility.initialY = 2301.6426339108284m
*.ue[1].mobility.initialZ = 0m
*.ue[1].mobility.initFromDisplayString = false
*.ue[2].mobility.initialX = 1506.4062128718585m
*.ue[2].mobility.initialY = 2209.7429035130585m
*.ue[2].mobility.initialZ = 0m
*.ue[2].mobility.initFromDisplayString = false
*.ue[3].mobility.initialX = 1403.5276955685245m
*.ue[3].mobility.initialY = 2381.5182287138514m
*.ue[3].mobility.initialZ = 0m
*.ue[3].mobility.initFromDisplayString = false
*.ue[4].mobility.initialX = 1434.9394514208034m
*.ue[4].mobility.initialY = 2293.0457384064616m
*.ue[4].mobility.initialZ = 0m
*.ue[4].mobility.initFromDisplayString = false
*.ue[5].mobility.initialX = 1492.6142280969743m
*.ue[5].mobility.initialY = 2248.812615324034m
*.ue[5].mobility.initialZ = 0m
*.ue[5].mobility.initFromDisplayString = false
*.ue[6].mobility.initialX = 1451.2623587165988m
*.ue[6].mobility.initialY = 2266.055963677178m
*.ue[6].mobility.initialZ = 0m
*.ue[6].mobility.initFromDisplayString = false
*.ue[7].mobility.initialX = 1512.4395986941392m
*.ue[7].mobility.initialY = 2302.782366238292m
*.ue[7].mobility.initialZ = 0m
*.ue[7].mobility.initFromDisplayString = false
*.ue[8].mobility.initialX = 1461.8297211608963m
*.ue[8].mobility.initialY = 2293.5032009001416m
*.ue[8].mobility.initialZ = 0m
*.ue[8].mobility.initFromDisplayString = false
*.ue[9].mobility.initialX = 1473.9630167951304m
*.ue[9].mobility.initialY = 2227.668666858387m
*.ue[9].mobility.initialZ = 0m
*.ue[9].mobility.initFromDisplayString = false
*.ue[10].mobility.initialX = 1515.5074353969126m
*.ue[10].mobility.initialY = 2217.08052419585m
*.ue[10].mobility.initialZ = 0m
*.ue[10].mobility.initFromDisplayString = false
*.ue[11].mobility.initialX = 1531.7007057160338m
*.ue[11].mobility.initialY = 2227.7669141159067m
*.ue[11].mobility.initialZ = 0m
*.ue[11].mobility.initFromDisplayString = false
*.ue[12].mobility.initialX = 1473.5020089241837m
*.ue[12].mobility.initialY = 2228.6266399478864m
*.ue[12].mobility.initialZ = 0m
*.ue[12].mobility.initFromDisplayString = false
*.ue[13].mobility.initialX = 1220.69898018579m
*.ue[13].mobility.initialY = 2230.451809360334m
*.ue[13].mobility.initialZ = 0m
*.ue[13].mobility.initFromDisplayString = false
*.ue[14].mobility.initialX = 1437.6284041252634m
*.ue[14].mobility.initialY = 2241.6010951012718m
*.ue[14].mobility.initialZ = 0m
*.ue[14].mobility.initFromDisplayString = false
*.ue[15].mobility.initialX = 1486.0402479176846m
*.ue[15].mobility.initialY = 2293.711254206431m
*.ue[15].mobility.initialZ = 0m
*.ue[15].mobility.initFromDisplayString = false
*.ue[16].mobility.initialX = 1532.5215604733144m
*.ue[16].mobility.initialY = 2282.9967462204886m
*.ue[16].mobility.initialZ = 0m
*.ue[16].mobility.initFromDisplayString = false
*.ue[17].mobility.initialX = 1486.2698646442102m
*.ue[17].mobility.initialY = 2270.483582906304m
*.ue[17].mobility.initialZ = 0m
*.ue[17].mobility.initFromDisplayString = false
*.ue[18].mobility.initialX = 1530.2737481080192m
*.ue[18].mobility.initialY = 2295.8257375503913m
*.ue[18].mobility.initialZ = 0m
*.ue[18].mobility.initFromDisplayString = false
*.ue[19].mobility.initialX = 1479.7655250414725m
*.ue[19].mobility.initialY = 2275.0930968161247m
*.ue[19].mobility.initialZ = 0m
*.ue[19].mobility.initFromDisplayString = false
*.ue[20].mobility.initialX = 1479.3113886194428m
*.ue[20].mobility.initialY = 2330.6016140451293m
*.ue[20].mobility.initialZ = 0m
*.ue[20].mobility.initFromDisplayString = false
*.ue[21].mobility.initialX = 1493.1819201459155m
*.ue[21].mobility.initialY = 2306.490716640512m
*.ue[21].mobility.initialZ = 0m
*.ue[21].mobility.initFromDisplayString = false
*.ue[22].mobility.initialX = 1483.5073226164259m
*.ue[22].mobility.initialY = 2249.942448875673m
*.ue[22].mobility.initialZ = 0m
*.ue[22].mobility.initFromDisplayString = false
*.ue[23].mobility.initialX = 1452.1292579806804m
*.ue[23].mobility.initialY = 2274.2222570718654m
*.ue[23].mobility.initialZ = 0m
*.ue[23].mobility.initFromDisplayString = false
*.ue[24].mobility.initialX = 1512.5476072742217m
*.ue[24].mobility.initialY = 2305.5420642816234m
*.ue[24].mobility.initialZ = 0m
*.ue[24].mobility.initFromDisplayString = false
*.ue[25].mobility.initialX = 1471.6933335014369m
*.ue[25].mobility.initialY = 2301.4170987900497m
*.ue[25].mobility.initialZ = 0m
*.ue[25].mobility.initFromDisplayString = false
*.ue[26].mobility.initialX = 1443.1670144368386m
*.ue[26].mobility.initialY = 2285.556366348834m
*.ue[26].mobility.initialZ = 0m
*.ue[26].mobility.initFromDisplayString = false
*.ue[27].mobility.initialX = 1513.5486983241165m
*.ue[27].mobility.initialY = 2245.748120558092m
*.ue[27].mobility.initialZ = 0m
*.ue[27].mobility.initFromDisplayString = false
*.ue[28].mobility.initialX = 1506.0089878203214m
*.ue[28].mobility.initialY = 2244.825937958409m
*.ue[28].mobility.initialZ = 0m
*.ue[28].mobility.initFromDisplayString = false
*.ue[29].mobility.initialX = 1495.5951607962334m
*.ue[29].mobility.initialY = 2231.5767849056692m
*.ue[29].mobility.initialZ = 0m
*.ue[29].mobility.initFromDisplayString = false
*.ue[30].mobility.initialX = 1440.829316326408m
*.ue[30].mobility.initialY = 2249.890736298217m
*.ue[30].mobility.initialZ = 0m
*.ue[30].mobility.initFromDisplayString = false
*.ue[31].mobility.initialX = 1420.7587851807546m
*.ue[31].mobility.initialY = 2257.313831216321m
*.ue[31].mobility.initialZ = 0m
*.ue[31].mobility.initFromDisplayString = false
*.ue[32].mobility.initialX = 1529.111275443846m
*.ue[32].mobility.initialY = 2307.748312105754m
*.ue[32].mobility.initialZ = 0m
*.ue[32].mobility.initFromDisplayString = false
*.ue[33].mobility.initialX = 1431.121633493964m
*.ue[33].mobility.initialY = 2159.778896580488m
*.ue[33].mobility.initialZ = 0m
*.ue[33].mobility.initFromDisplayString = false
*.ue[34].mobility.initialX = 1468.9142155430748m
*.ue[34].mobility.initialY = 2208.089965873739m
*.ue[34].mobility.initialZ = 0m
*.ue[34].mobility.initFromDisplayString = false
*.ue[35].mobility.initialX = 1519.6894259610315m
*.ue[35].mobility.initialY = 2255.0425366126133m
*.ue[35].mobility.initialZ = 0m
*.ue[35].mobility.initFromDisplayString = false
*.ue[36].mobility.initialX = 1417.727699841725m
*.ue[36].mobility.initialY = 2255.34332738192m
*.ue[36].mobility.initialZ = 0m
*.ue[36].mobility.initFromDisplayString = false
*.ue[37].mobility.initialX = 1455.036762385088m
*.ue[37].mobility.initialY = 2257.0095318793933m
*.ue[37].mobility.initialZ = 0m
*.ue[37].mobility.initFromDisplayString = false
*.ue[38].mobility.initialX = 1416.6059261426356m
*.ue[38].mobility.initialY = 2271.802391579234m
*.ue[38].mobility.initialZ = 0m
*.ue[38].mobility.initFromDisplayString = false
*.ue[39].mobility.initialX = 1271.2741072409447m
*.ue[39].mobility.initialY = 2359.114453127379m
*.ue[39].mobility.initialZ = 0m
*.ue[39].mobility.initFromDisplayString = false
*.ue[40].mobility.initialX = 1550.3586424273683m
*.ue[40].mobility.initialY = 2279.9929679497873m
*.ue[40].mobility.initialZ = 0m
*.ue[40].mobility.initFromDisplayString = false
*.ue[41].mobility.initialX = 1508.3586700582534m
*.ue[41].mobility.initialY = 2279.600673332672m
*.ue[41].mobility.initialZ = 0m
*.ue[41].mobility.initFromDisplayString = false
*.ue[42].mobility.initialX = 944.0651534077756m
*.ue[42].mobility.initialY = 2437.725988675399m
*.ue[42].mobility.initialZ = 0m
*.ue[42].mobility.initFromDisplayString = false
*.ue[43].mobility.initialX = 975.5298573243551m
*.ue[43].mobility.initialY = 2605.0375336764278m
*.ue[43].mobility.initialZ = 0m
*.ue[43].mobility.initFromDisplayString = false
*.ue[44].mobility.initialX = 1093.132209320193m
*.ue[44].mobility.initialY = 2442.2688651396775m
*.ue[44].mobility.initialZ = 0m
*.ue[44].mobility.initFromDisplayString = false
*.ue[45].mobility.initialX = 1190.4508029049182m
*.ue[45].mobility.initialY = 2536.3923090925277m
*.ue[45].mobility.initialZ = 0m
*.ue[45].mobility.initFromDisplayString = false
*.ue[46].mobility.initialX = 937.6320462894315m
*.ue[46].mobility.initialY = 2753.209409971591m
*.ue[46].mobility.initialZ = 0m
*.ue[46].mobility.initFromDisplayString = false
*.ue[47].mobility.initialX = 907.9324222312271m
*.ue[47].mobility.initialY = 2592.8933423484928m
*.ue[47].mobility.initialZ = 0m
*.ue[47].mobility.initFromDisplayString = false
*.ue[48].mobility.initialX = 1207.7671860920059m
*.ue[48].mobility.initialY = 2415.9124401711365m
*.ue[48].mobility.initialZ = 0m
*.ue[48].mobility.initFromDisplayString = false
*.ue[49].mobility.initialX = 1207.2648079534204m
*.ue[49].mobility.initialY = 2794.0739645482818m
*.ue[49].mobility.initialZ = 0m
*.ue[49].mobility.initFromDisplayString = false
*.ue[50].mobility.initialX = 1503.8804527757375m
*.ue[50].mobility.initialY = 2601.6244071364576m
*.ue[50].mobility.initialZ = 0m
*.ue[50].mobility.initFromDisplayString = false
*.ue[51].mobility.initialX = 1595.7763305552735m
*.ue[51].mobility.initialY = 2418.659945677011m
*.ue[51].mobility.initialZ = 0m
*.ue[51].mobility.initFromDisplayString = false
*.ue[52].mobility.initialX = 1475.2601033321582m
*.ue[52].mobility.initialY = 2676.200486302312m
*.ue[52].mobility.initialZ = 0m
*.ue[52].mobility.initFromDisplayString = false
*.ue[53].mobility.initialX = 1226.5414291547377m
*.ue[53].mobility.initialY = 2686.977192105305m
*.ue[53].mobility.initialZ = 0m
*.ue[53].mobility.initFromDisplayString = false
*.ue[54].mobility.initialX = 1562.1069743721125m
*.ue[54].mobility.initialY = 2562.352452612099m
*.ue[54].mobility.initialZ = 0m
*.ue[54].mobility.initFromDisplayString = false
*.ue[55].mobility.initialX = 1420.446531692553m
*.ue[55].mobility.initialY = 2663.990863566625m
*.ue[55].mobility.initialZ = 0m
*.ue[55].mobility.initFromDisplayString = false
*.ue[56].mobility.initialX = 1607.164010130123m
*.ue[56].mobility.initialY = 2585.7937336995365m
*.ue[56].mobility.initialZ = 0m
*.ue[56].mobility.initFromDisplayString = false
*.ue[57].mobility.initialX = 1625.3598526821615m
*.ue[57].mobility.initialY = 2440.9538683872765m
*.ue[57].mobility.initialZ = 0m
*.ue[57].mobility.initFromDisplayString = false
*.ue[58].mobility.initialX = 1578.4363125416207m
*.ue[58].mobility.initialY = 2822.7501562136854m
*.ue[58].mobility.initialZ = 0m
*.ue[58].mobility.initFromDisplayString = false
*.ue[59].mobility.initialX = 1244.535245592868m
*.ue[59].mobility.initialY = 2845.7049613593786m
*.ue[59].mobility.initialZ = 0m
*.ue[59].mobility.initFromDisplayString = false
*.ue[0].mobility.initialMovementHeading = 175.13328736830488deg
*.ue[1].mobility.initialMovementHeading = 190.9282945203743deg
*.ue[2].mobility.initialMovementHeading = 18.297599471082616deg
*.ue[3].mobility.initialMovementHeading = 329.098455409784deg
*.ue[4].mobility.initialMovementHeading = 259.5015367983022deg
*.ue[5].mobility.initialMovementHeading = 92.59121966828879deg
*.ue[6].mobility.initialMovementHeading = 293.29894040211764deg
*.ue[7].mobility.initialMovementHeading = 148.99309802251585deg
*.ue[8].mobility.initialMovementHeading = 342.86335126289976deg
*.ue[9].mobility.initialMovementHeading = 328.5549997839543deg
*.ue[10].mobility.initialMovementHeading = 27.981136408957184deg
*.ue[11].mobility.initialMovementHeading = 293.0585751988871deg
*.ue[12].mobility.initialMovementHeading = 203.10651691257942deg
*.ue[13].mobility.initialMovementHeading = 77.57673741252447deg
*.ue[14].mobility.initialMovementHeading = 107.9628230813791deg
*.ue[15].mobility.initialMovementHeading = 76.45870501414328deg
*.ue[16].mobility.initialMovementHeading = 83.31311730657681deg
*.ue[17].mobility.initialMovementHeading = 237.4001306081855deg
*.ue[18].mobility.initialMovementHeading = 286.97368514006706deg
*.ue[19].mobility.initialMovementHeading = 19.45190910639529deg
*.ue[20].mobility.initialMovementHeading = 88.09125225545785deg
*.ue[21].mobility.initialMovementHeading = 257.6260477024314deg
*.ue[22].mobility.initialMovementHeading = 57.845265395437764deg
*.ue[23].mobility.initialMovementHeading = 79.06903970866976deg
*.ue[24].mobility.initialMovementHeading = 158.94581687120578deg
*.ue[25].mobility.initialMovementHeading = 255.5597416456069deg
*.ue[26].mobility.initialMovementHeading = 130.87587062241644deg
*.ue[27].mobility.initialMovementHeading = 326.03566316564184deg
*.ue[28].mobility.initialMovementHeading = 270.5635464611041deg
*.ue[29].mobility.initialMovementHeading = 267.16160906538107deg
*.ue[30].mobility.initialMovementHeading = 277.1556404556902deg
*.ue[31].mobility.initialMovementHeading = 7.3396273204551deg
*.ue[32].mobility.initialMovementHeading = 144.34322610983818deg
*.ue[33].mobility.initialMovementHeading = 201.01276083081788deg
*.ue[34].mobility.initialMovementHeading = 193.10573687300567deg
*.ue[35].mobility.initialMovementHeading = 15.344238571281013deg
*.ue[36].mobility.initialMovementHeading = 20.502517079378016deg
*.ue[37].mobility.initialMovementHeading = 264.6566673283808deg
*.ue[38].mobility.initialMovementHeading = 260.66134129966423deg
*.ue[39].mobility.initialMovementHeading = 314.85047624731857deg
*.ue[40].mobility.initialMovementHeading = 336.88510233529996deg
*.ue[41].mobility.initialMovementHeading = 21.56891864487686deg
*.ue[42].mobility.initialMovementHeading = 231.01156034330558deg
*.ue[43].mobility.initialMovementHeading = 187.55268961419512deg
*.ue[44].mobility.initialMovementHeading = 199.43269931055067deg
*.ue[45].mobility.initialMovementHeading = 50.118992434633626deg
*.ue[46].mobility.initialMovementHeading = 165.22515195683243deg
*.ue[47].mobility.initialMovementHeading = 277.5924491448034deg
*.ue[48].mobility.initialMovementHeading = 279.01051764415655deg
*.ue[49].mobility.initialMovementHeading = 73.3827914775864deg
*.ue[50].mobility.initialMovementHeading = 254.19448464469386deg
*.ue[51].mobility.initialMovementHeading = 339.597079905961deg
*.ue[52].mobility.initialMovementHeading = 154.45293921285423deg
*.ue[53].mobility.initialMovementHeading = 267.7133876939129deg
*.ue[54].mobility.initialMovementHeading = 156.42024201228466deg
*.ue[55].mobility.initialMovementHeading = 14.041844407785234deg
*.ue[56].mobility.initialMovementHeading = 273.5172769913954deg
*.ue[57].mobility.initialMovementHeading = 329.06351256079034deg
*.ue[58].mobility.initialMovementHeading = 294.2748020254431deg
*.ue[59].mobility.initialMovementHeading = 199.8618562532805deg
*.ue[*].mobility.constraintAreaMaxX = 4000 m
*.ue[*].mobility.constraintAreaMaxY = 4000 m
*.ue[*].mobility.constraintAreaMaxZ = inf m
*.ue[*].mobility.constraintAreaMinX = 0 m
*.ue[*].mobility.constraintAreaMinY = 0 m
*.ue[*].mobility.constraintAreaMinZ = -inf m
