#Function: ilp_move_users
#Parameters:
#   filename: ../Network_CCOpMv/_5G/simulations/ilp_move_users-14.ini
#   seed: 14
#   size_y: 4000
#   size_x: 4000
#   size_sector: 400
#   n_macros: 1
#   config_name: ilp_move_users
#   num_slices: 10
#Extra = Using 1 macros with 60 ues each.
[General]
sim-time-limit = 10s

############### Statistics ###############
output-scalar-file = ${resultdir}/${configname}/${repetition}.sca
output-vector-file = ${resultdir}/${configname}/${repetition}.vec
**.vector-recording = false
eventlog-file = ${resultdir}/${configname}/${repetition}.elog
seed-set = ${repetition}

[Config ilp_move_users]
network = _5G.networks.SimpleNet
sim-time-limit = 10s
repeat = 1
seed-set = ${repetition}
num-rngs = 2
seed-1-mt = 14

output-scalar-file = ${resultdir}/${configname}/${repetition}.sca
output-vector-file = ${resultdir}/${configname}/${repetition}.vec
**.vector-recording = false
eventlog-file = ${resultdir}/${configname}/${repetition}.elog

############### Snapshots ###############
snapshot-file = ../../../Functions/ilp_move_users-14.sna
**.snapshotter.snapshot = true
**.snapshotter.delay = 1

############### Transmission Power ###############
**.ueTxPower = 24
**.eNodeBTxPower = 46
**.microTxPower = 30
**.cellularNic.phy.txDirection = "OMNI"

############### Channel Control ###############
**.numComponentCarriers = 1
*.carrierAggregation.componentCarrier[0].carrierFrequency = 0.7GHz

############### Channel Model ###############
**.cellularNic.LteChannelModelType = "LteRealisticChannelModel"
**.cellularNic.channelModel[*].building_height = 20
**.cellularNic.channelModel[*].nodeb_height = 25
**.cellularNic.channelModel[*].ue_height = 1.5
**.cellularNic.channelModel[*].street_wide = 20
**.cellularNic.channelModel[*].fading_type = "JAKES"
**.cellularNic.channelModel[*].extCell_interference = false
**.cellularNic.channelModel[*].antennGainEnB = 18
**.cellularNic.channelModel[*].antennGainMicro = 5
**.cellularNic.channelModel[*].antennaGainUe = 0
**.cellularNic.channelModel[*].bs_noise_figure = 5
**.cellularNic.channelModel[*].cable_loss = 2
**.cellularNic.channelModel[*].componentCarrierIndex = 0
**.cellularNic.channelModel[*].correlation_distance = 50
**.cellularNic.channelModel[*].d2d_interference = true
**.cellularNic.channelModel[*].delay_rms = 363e-9
**.cellularNic.channelModel[*].downlink_interference = false
**.cellularNic.channelModel[*].dynamic_los = false
**.cellularNic.channelModel[*].enable_extCell_los = true
**.cellularNic.channelModel[*].fading = true
**.cellularNic.channelModel[*].fading_paths = 6
**.cellularNic.channelModel[*].fixed_los = false
**.cellularNic.channelModel[*].harqReduction = 0.2
**.cellularNic.channelModel[*].inside_building = false
**.cellularNic.channelModel[*].lambdaMaxTh = 0.2
**.cellularNic.channelModel[*].lambdaMinTh = 0.02
**.cellularNic.channelModel[*].lambdaRatioTh = 20
**.cellularNic.channelModel[*].rsrqScale = 1.0
**.cellularNic.channelModel[*].rsrqShift = 22
**.cellularNic.channelModel[*].shadowing = true
**.cellularNic.channelModel[*].targetBler = 0.01
**.cellularNic.channelModel[*].thermalNoise = -104.5
**.cellularNic.channelModel[*].tolerateMaxDistViolation = true
**.cellularNic.channelModel[*].ue_noise_figure = 7
**.cellularNic.channelModel[*].uplink_interference = false
**.cellularNic.channelModel[*].useRsrqFromLog = false
**.cellularNic.channelModel[*].useTorus = false

############### Resource Blocks ###############
**.numBands = 6

############### UEs ###############
**.numUe = 60

# Conecting UEs to eNodeB
**.ue[0].macCellId = 1
**.ue[0].masterId = 1
**.ue[1].macCellId = 1
**.ue[1].masterId = 1
**.ue[2].macCellId = 1
**.ue[2].masterId = 1
**.ue[3].macCellId = 1
**.ue[3].masterId = 1
**.ue[4].macCellId = 1
**.ue[4].masterId = 1
**.ue[5].macCellId = 1
**.ue[5].masterId = 1
**.ue[6].macCellId = 1
**.ue[6].masterId = 1
**.ue[7].macCellId = 1
**.ue[7].masterId = 1
**.ue[8].macCellId = 1
**.ue[8].masterId = 1
**.ue[9].macCellId = 1
**.ue[9].masterId = 1
**.ue[10].macCellId = 1
**.ue[10].masterId = 1
**.ue[11].macCellId = 1
**.ue[11].masterId = 1
**.ue[12].macCellId = 1
**.ue[12].masterId = 1
**.ue[13].macCellId = 1
**.ue[13].masterId = 1
**.ue[14].macCellId = 1
**.ue[14].masterId = 1
**.ue[15].macCellId = 1
**.ue[15].masterId = 1
**.ue[16].macCellId = 1
**.ue[16].masterId = 1
**.ue[17].macCellId = 1
**.ue[17].masterId = 1
**.ue[18].macCellId = 1
**.ue[18].masterId = 1
**.ue[19].macCellId = 1
**.ue[19].masterId = 1
**.ue[20].macCellId = 1
**.ue[20].masterId = 1
**.ue[21].macCellId = 1
**.ue[21].masterId = 1
**.ue[22].macCellId = 1
**.ue[22].masterId = 1
**.ue[23].macCellId = 1
**.ue[23].masterId = 1
**.ue[24].macCellId = 1
**.ue[24].masterId = 1
**.ue[25].macCellId = 1
**.ue[25].masterId = 1
**.ue[26].macCellId = 1
**.ue[26].masterId = 1
**.ue[27].macCellId = 1
**.ue[27].masterId = 1
**.ue[28].macCellId = 1
**.ue[28].masterId = 1
**.ue[29].macCellId = 1
**.ue[29].masterId = 1
**.ue[30].macCellId = 1
**.ue[30].masterId = 1
**.ue[31].macCellId = 1
**.ue[31].masterId = 1
**.ue[32].macCellId = 1
**.ue[32].masterId = 1
**.ue[33].macCellId = 1
**.ue[33].masterId = 1
**.ue[34].macCellId = 1
**.ue[34].masterId = 1
**.ue[35].macCellId = 1
**.ue[35].masterId = 1
**.ue[36].macCellId = 1
**.ue[36].masterId = 1
**.ue[37].macCellId = 1
**.ue[37].masterId = 1
**.ue[38].macCellId = 1
**.ue[38].masterId = 1
**.ue[39].macCellId = 1
**.ue[39].masterId = 1
**.ue[40].macCellId = 1
**.ue[40].masterId = 1
**.ue[41].macCellId = 1
**.ue[41].masterId = 1
**.ue[42].macCellId = 1
**.ue[42].masterId = 1
**.ue[43].macCellId = 1
**.ue[43].masterId = 1
**.ue[44].macCellId = 1
**.ue[44].masterId = 1
**.ue[45].macCellId = 1
**.ue[45].masterId = 1
**.ue[46].macCellId = 1
**.ue[46].masterId = 1
**.ue[47].macCellId = 1
**.ue[47].masterId = 1
**.ue[48].macCellId = 1
**.ue[48].masterId = 1
**.ue[49].macCellId = 1
**.ue[49].masterId = 1
**.ue[50].macCellId = 1
**.ue[50].masterId = 1
**.ue[51].macCellId = 1
**.ue[51].masterId = 1
**.ue[52].macCellId = 1
**.ue[52].masterId = 1
**.ue[53].macCellId = 1
**.ue[53].masterId = 1
**.ue[54].macCellId = 1
**.ue[54].masterId = 1
**.ue[55].macCellId = 1
**.ue[55].masterId = 1
**.ue[56].macCellId = 1
**.ue[56].masterId = 1
**.ue[57].macCellId = 1
**.ue[57].masterId = 1
**.ue[58].macCellId = 1
**.ue[58].masterId = 1
**.ue[59].macCellId = 1
**.ue[59].masterId = 1

# Scheduler
**.schedulingDisciplineUl = ${sched= "MAXCI"}
**.schedulingDisciplineDl = ${sched}

############### Scenario ###############

# UEs
**.ue[0].cellularNic.channelModel[*].scenario = "URBAN_MACROCELL"
**.ue[1].cellularNic.channelModel[*].scenario = "URBAN_MACROCELL"
**.ue[2].cellularNic.channelModel[*].scenario = "URBAN_MACROCELL"
**.ue[3].cellularNic.channelModel[*].scenario = "URBAN_MACROCELL"
**.ue[4].cellularNic.channelModel[*].scenario = "URBAN_MACROCELL"
**.ue[5].cellularNic.channelModel[*].scenario = "URBAN_MACROCELL"
**.ue[6].cellularNic.channelModel[*].scenario = "URBAN_MACROCELL"
**.ue[7].cellularNic.channelModel[*].scenario = "URBAN_MACROCELL"
**.ue[8].cellularNic.channelModel[*].scenario = "URBAN_MACROCELL"
**.ue[9].cellularNic.channelModel[*].scenario = "URBAN_MACROCELL"
**.ue[10].cellularNic.channelModel[*].scenario = "URBAN_MACROCELL"
**.ue[11].cellularNic.channelModel[*].scenario = "URBAN_MACROCELL"
**.ue[12].cellularNic.channelModel[*].scenario = "URBAN_MACROCELL"
**.ue[13].cellularNic.channelModel[*].scenario = "URBAN_MACROCELL"
**.ue[14].cellularNic.channelModel[*].scenario = "URBAN_MACROCELL"
**.ue[15].cellularNic.channelModel[*].scenario = "URBAN_MACROCELL"
**.ue[16].cellularNic.channelModel[*].scenario = "URBAN_MACROCELL"
**.ue[17].cellularNic.channelModel[*].scenario = "URBAN_MACROCELL"
**.ue[18].cellularNic.channelModel[*].scenario = "URBAN_MACROCELL"
**.ue[19].cellularNic.channelModel[*].scenario = "URBAN_MACROCELL"
**.ue[20].cellularNic.channelModel[*].scenario = "URBAN_MACROCELL"
**.ue[21].cellularNic.channelModel[*].scenario = "URBAN_MACROCELL"
**.ue[22].cellularNic.channelModel[*].scenario = "URBAN_MACROCELL"
**.ue[23].cellularNic.channelModel[*].scenario = "URBAN_MACROCELL"
**.ue[24].cellularNic.channelModel[*].scenario = "URBAN_MACROCELL"
**.ue[25].cellularNic.channelModel[*].scenario = "URBAN_MACROCELL"
**.ue[26].cellularNic.channelModel[*].scenario = "URBAN_MACROCELL"
**.ue[27].cellularNic.channelModel[*].scenario = "URBAN_MACROCELL"
**.ue[28].cellularNic.channelModel[*].scenario = "URBAN_MACROCELL"
**.ue[29].cellularNic.channelModel[*].scenario = "URBAN_MACROCELL"
**.ue[30].cellularNic.channelModel[*].scenario = "URBAN_MACROCELL"
**.ue[31].cellularNic.channelModel[*].scenario = "URBAN_MACROCELL"
**.ue[32].cellularNic.channelModel[*].scenario = "URBAN_MACROCELL"
**.ue[33].cellularNic.channelModel[*].scenario = "URBAN_MACROCELL"
**.ue[34].cellularNic.channelModel[*].scenario = "URBAN_MACROCELL"
**.ue[35].cellularNic.channelModel[*].scenario = "URBAN_MACROCELL"
**.ue[36].cellularNic.channelModel[*].scenario = "URBAN_MACROCELL"
**.ue[37].cellularNic.channelModel[*].scenario = "URBAN_MACROCELL"
**.ue[38].cellularNic.channelModel[*].scenario = "URBAN_MACROCELL"
**.ue[39].cellularNic.channelModel[*].scenario = "URBAN_MACROCELL"
**.ue[40].cellularNic.channelModel[*].scenario = "URBAN_MACROCELL"
**.ue[41].cellularNic.channelModel[*].scenario = "URBAN_MACROCELL"
**.ue[42].cellularNic.channelModel[*].scenario = "URBAN_MACROCELL"
**.ue[43].cellularNic.channelModel[*].scenario = "URBAN_MACROCELL"
**.ue[44].cellularNic.channelModel[*].scenario = "URBAN_MACROCELL"
**.ue[45].cellularNic.channelModel[*].scenario = "URBAN_MACROCELL"
**.ue[46].cellularNic.channelModel[*].scenario = "URBAN_MACROCELL"
**.ue[47].cellularNic.channelModel[*].scenario = "URBAN_MACROCELL"
**.ue[48].cellularNic.channelModel[*].scenario = "URBAN_MACROCELL"
**.ue[49].cellularNic.channelModel[*].scenario = "URBAN_MACROCELL"
**.ue[50].cellularNic.channelModel[*].scenario = "URBAN_MACROCELL"
**.ue[51].cellularNic.channelModel[*].scenario = "URBAN_MACROCELL"
**.ue[52].cellularNic.channelModel[*].scenario = "URBAN_MACROCELL"
**.ue[53].cellularNic.channelModel[*].scenario = "URBAN_MACROCELL"
**.ue[54].cellularNic.channelModel[*].scenario = "URBAN_MACROCELL"
**.ue[55].cellularNic.channelModel[*].scenario = "URBAN_MACROCELL"
**.ue[56].cellularNic.channelModel[*].scenario = "URBAN_MACROCELL"
**.ue[57].cellularNic.channelModel[*].scenario = "URBAN_MACROCELL"
**.ue[58].cellularNic.channelModel[*].scenario = "URBAN_MACROCELL"
**.ue[59].cellularNic.channelModel[*].scenario = "URBAN_MACROCELL"

############### Mobility ###############

# UEs

*.ue[*].mobilityType = "VariableSpeedMobility"
*.ue[*].mobility.changeInterval = 1s
*.ue[*].mobility.meanSpeed = 3000mps
*.ue[*].mobility.standardDeviation = 1000
*.ue[0].mobility.initialX = 612.8349313775522m
*.ue[0].mobility.initialY = 2323.4452397297487m
*.ue[0].mobility.initialZ = 0m
*.ue[0].mobility.initFromDisplayString = false
*.ue[1].mobility.initialX = 724.2267011380433m
*.ue[1].mobility.initialY = 2285.830064497604m
*.ue[1].mobility.initialZ = 0m
*.ue[1].mobility.initFromDisplayString = false
*.ue[2].mobility.initialX = 624.724121501073m
*.ue[2].mobility.initialY = 2385.3015084055887m
*.ue[2].mobility.initialZ = 0m
*.ue[2].mobility.initFromDisplayString = false
*.ue[3].mobility.initialX = 866.5339836195616m
*.ue[3].mobility.initialY = 2344.073571547118m
*.ue[3].mobility.initialZ = 0m
*.ue[3].mobility.initFromDisplayString = false
*.ue[4].mobility.initialX = 837.1744002673865m
*.ue[4].mobility.initialY = 2378.9530249843547m
*.ue[4].mobility.initialZ = 0m
*.ue[4].mobility.initFromDisplayString = false
*.ue[5].mobility.initialX = 1068.2491634214996m
*.ue[5].mobility.initialY = 2289.4003542082883m
*.ue[5].mobility.initialZ = 0m
*.ue[5].mobility.initFromDisplayString = false
*.ue[6].mobility.initialX = 600.8448394182692m
*.ue[6].mobility.initialY = 2431.720397041398m
*.ue[6].mobility.initialZ = 0m
*.ue[6].mobility.initFromDisplayString = false
*.ue[7].mobility.initialX = 740.3831485727312m
*.ue[7].mobility.initialY = 2466.137553247273m
*.ue[7].mobility.initialZ = 0m
*.ue[7].mobility.initFromDisplayString = false
*.ue[8].mobility.initialX = 1107.22139478868m
*.ue[8].mobility.initialY = 2431.806573795241m
*.ue[8].mobility.initialZ = 0m
*.ue[8].mobility.initFromDisplayString = false
*.ue[9].mobility.initialX = 1098.1206252538298m
*.ue[9].mobility.initialY = 2533.8584367609037m
*.ue[9].mobility.initialZ = 0m
*.ue[9].mobility.initFromDisplayString = false
*.ue[10].mobility.initialX = 1123.3845670981202m
*.ue[10].mobility.initialY = 2458.951917967239m
*.ue[10].mobility.initialZ = 0m
*.ue[10].mobility.initFromDisplayString = false
*.ue[11].mobility.initialX = 1171.195949637174m
*.ue[11].mobility.initialY = 2477.7679758925005m
*.ue[11].mobility.initialZ = 0m
*.ue[11].mobility.initFromDisplayString = false
*.ue[12].mobility.initialX = 1164.527796504632m
*.ue[12].mobility.initialY = 2498.826745192932m
*.ue[12].mobility.initialZ = 0m
*.ue[12].mobility.initFromDisplayString = false
*.ue[13].mobility.initialX = 1149.1991808209775m
*.ue[13].mobility.initialY = 2528.284329186959m
*.ue[13].mobility.initialZ = 0m
*.ue[13].mobility.initFromDisplayString = false
*.ue[14].mobility.initialX = 1193.406455719331m
*.ue[14].mobility.initialY = 2515.8987884965427m
*.ue[14].mobility.initialZ = 0m
*.ue[14].mobility.initFromDisplayString = false
*.ue[15].mobility.initialX = 1116.535860998741m
*.ue[15].mobility.initialY = 2478.321721657502m
*.ue[15].mobility.initialZ = 0m
*.ue[15].mobility.initFromDisplayString = false
*.ue[16].mobility.initialX = 1090.6730587527645m
*.ue[16].mobility.initialY = 2496.3599587355748m
*.ue[16].mobility.initialZ = 0m
*.ue[16].mobility.initFromDisplayString = false
*.ue[17].mobility.initialX = 1118.5655812423295m
*.ue[17].mobility.initialY = 2485.5660116833437m
*.ue[17].mobility.initialZ = 0m
*.ue[17].mobility.initFromDisplayString = false
*.ue[18].mobility.initialX = 1196.9472811261844m
*.ue[18].mobility.initialY = 2774.7510023102845m
*.ue[18].mobility.initialZ = 0m
*.ue[18].mobility.initFromDisplayString = false
*.ue[19].mobility.initialX = 1192.3837930001844m
*.ue[19].mobility.initialY = 2488.466130604145m
*.ue[19].mobility.initialZ = 0m
*.ue[19].mobility.initFromDisplayString = false
*.ue[20].mobility.initialX = 1128.2545947305437m
*.ue[20].mobility.initialY = 2516.142460921067m
*.ue[20].mobility.initialZ = 0m
*.ue[20].mobility.initFromDisplayString = false
*.ue[21].mobility.initialX = 1112.8562462082325m
*.ue[21].mobility.initialY = 2505.067323884307m
*.ue[21].mobility.initialZ = 0m
*.ue[21].mobility.initFromDisplayString = false
*.ue[22].mobility.initialX = 1128.9542141739832m
*.ue[22].mobility.initialY = 2534.597323366558m
*.ue[22].mobility.initialZ = 0m
*.ue[22].mobility.initFromDisplayString = false
*.ue[23].mobility.initialX = 1147.812774832761m
*.ue[23].mobility.initialY = 2492.557756540596m
*.ue[23].mobility.initialZ = 0m
*.ue[23].mobility.initFromDisplayString = false
*.ue[24].mobility.initialX = 1140.1652980739168m
*.ue[24].mobility.initialY = 2518.1314676899683m
*.ue[24].mobility.initialZ = 0m
*.ue[24].mobility.initFromDisplayString = false
*.ue[25].mobility.initialX = 1190.3712659353798m
*.ue[25].mobility.initialY = 2462.969658593062m
*.ue[25].mobility.initialZ = 0m
*.ue[25].mobility.initFromDisplayString = false
*.ue[26].mobility.initialX = 1108.219403039199m
*.ue[26].mobility.initialY = 2510.3298562866626m
*.ue[26].mobility.initialZ = 0m
*.ue[26].mobility.initFromDisplayString = false
*.ue[27].mobility.initialX = 1173.671904004109m
*.ue[27].mobility.initialY = 2462.2093877832326m
*.ue[27].mobility.initialZ = 0m
*.ue[27].mobility.initFromDisplayString = false
*.ue[28].mobility.initialX = 1114.3083513095194m
*.ue[28].mobility.initialY = 2522.6927149108833m
*.ue[28].mobility.initialZ = 0m
*.ue[28].mobility.initFromDisplayString = false
*.ue[29].mobility.initialX = 1176.791907064499m
*.ue[29].mobility.initialY = 2527.153352363022m
*.ue[29].mobility.initialZ = 0m
*.ue[29].mobility.initFromDisplayString = false
*.ue[30].mobility.initialX = 1149.2931454224035m
*.ue[30].mobility.initialY = 2439.994908168531m
*.ue[30].mobility.initialZ = 0m
*.ue[30].mobility.initFromDisplayString = false
*.ue[31].mobility.initialX = 1144.1980835686227m
*.ue[31].mobility.initialY = 2506.878649735653m
*.ue[31].mobility.initialZ = 0m
*.ue[31].mobility.initFromDisplayString = false
*.ue[32].mobility.initialX = 1105.5162041884064m
*.ue[32].mobility.initialY = 2527.276272075418m
*.ue[32].mobility.initialZ = 0m
*.ue[32].mobility.initFromDisplayString = false
*.ue[33].mobility.initialX = 1127.3116635794902m
*.ue[33].mobility.initialY = 2490.474062481304m
*.ue[33].mobility.initialZ = 0m
*.ue[33].mobility.initFromDisplayString = false
*.ue[34].mobility.initialX = 1077.4212995569367m
*.ue[34].mobility.initialY = 2786.5373049061222m
*.ue[34].mobility.initialZ = 0m
*.ue[34].mobility.initFromDisplayString = false
*.ue[35].mobility.initialX = 1095.9183871157206m
*.ue[35].mobility.initialY = 2573.926924632364m
*.ue[35].mobility.initialZ = 0m
*.ue[35].mobility.initFromDisplayString = false
*.ue[36].mobility.initialX = 1171.8551929966743m
*.ue[36].mobility.initialY = 2445.7217757068443m
*.ue[36].mobility.initialZ = 0m
*.ue[36].mobility.initFromDisplayString = false
*.ue[37].mobility.initialX = 1165.3886471925848m
*.ue[37].mobility.initialY = 2511.165341490195m
*.ue[37].mobility.initialZ = 0m
*.ue[37].mobility.initFromDisplayString = false
*.ue[38].mobility.initialX = 1149.8755888403628m
*.ue[38].mobility.initialY = 2436.2732243345313m
*.ue[38].mobility.initialZ = 0m
*.ue[38].mobility.initFromDisplayString = false
*.ue[39].mobility.initialX = 1140.640820616468m
*.ue[39].mobility.initialY = 2551.1172407615136m
*.ue[39].mobility.initialZ = 0m
*.ue[39].mobility.initFromDisplayString = false
*.ue[40].mobility.initialX = 1146.2229713251045m
*.ue[40].mobility.initialY = 2551.714925534797m
*.ue[40].mobility.initialZ = 0m
*.ue[40].mobility.initFromDisplayString = false
*.ue[41].mobility.initialX = 1177.7255272535112m
*.ue[41].mobility.initialY = 2466.019595593622m
*.ue[41].mobility.initialZ = 0m
*.ue[41].mobility.initFromDisplayString = false
*.ue[42].mobility.initialX = 1122.7059770771243m
*.ue[42].mobility.initialY = 2421.6494451943136m
*.ue[42].mobility.initialZ = 0m
*.ue[42].mobility.initFromDisplayString = false
*.ue[43].mobility.initialX = 1177.6550538782972m
*.ue[43].mobility.initialY = 2454.912816096007m
*.ue[43].mobility.initialZ = 0m
*.ue[43].mobility.initFromDisplayString = false
*.ue[44].mobility.initialX = 1084.7113438385304m
*.ue[44].mobility.initialY = 2511.3199754557104m
*.ue[44].mobility.initialZ = 0m
*.ue[44].mobility.initFromDisplayString = false
*.ue[45].mobility.initialX = 1103.0263809611386m
*.ue[45].mobility.initialY = 2513.380991285258m
*.ue[45].mobility.initialZ = 0m
*.ue[45].mobility.initFromDisplayString = false
*.ue[46].mobility.initialX = 1138.758579289455m
*.ue[46].mobility.initialY = 2516.101735427521m
*.ue[46].mobility.initialZ = 0m
*.ue[46].mobility.initFromDisplayString = false
*.ue[47].mobility.initialX = 1078.9981084499223m
*.ue[47].mobility.initialY = 2458.802999250103m
*.ue[47].mobility.initialZ = 0m
*.ue[47].mobility.initFromDisplayString = false
*.ue[48].mobility.initialX = 1096.3008012720006m
*.ue[48].mobility.initialY = 2520.731332543678m
*.ue[48].mobility.initialZ = 0m
*.ue[48].mobility.initFromDisplayString = false
*.ue[49].mobility.initialX = 1098.5358648061347m
*.ue[49].mobility.initialY = 2482.6756885668783m
*.ue[49].mobility.initialZ = 0m
*.ue[49].mobility.initFromDisplayString = false
*.ue[50].mobility.initialX = 1177.276679740953m
*.ue[50].mobility.initialY = 2523.5843202323604m
*.ue[50].mobility.initialZ = 0m
*.ue[50].mobility.initFromDisplayString = false
*.ue[51].mobility.initialX = 1168.8187638501904m
*.ue[51].mobility.initialY = 2524.2744545789888m
*.ue[51].mobility.initialZ = 0m
*.ue[51].mobility.initFromDisplayString = false
*.ue[52].mobility.initialX = 1148.4870377548195m
*.ue[52].mobility.initialY = 2454.1970136012546m
*.ue[52].mobility.initialZ = 0m
*.ue[52].mobility.initFromDisplayString = false
*.ue[53].mobility.initialX = 1118.26804157374m
*.ue[53].mobility.initialY = 2468.7182433257403m
*.ue[53].mobility.initialZ = 0m
*.ue[53].mobility.initFromDisplayString = false
*.ue[54].mobility.initialX = 1200.0531718950563m
*.ue[54].mobility.initialY = 2506.8032882722664m
*.ue[54].mobility.initialZ = 0m
*.ue[54].mobility.initFromDisplayString = false
*.ue[55].mobility.initialX = 661.5391948303487m
*.ue[55].mobility.initialY = 2833.943095186357m
*.ue[55].mobility.initialZ = 0m
*.ue[55].mobility.initFromDisplayString = false
*.ue[56].mobility.initialX = 1019.5354660175133m
*.ue[56].mobility.initialY = 2880.654816785372m
*.ue[56].mobility.initialZ = 0m
*.ue[56].mobility.initFromDisplayString = false
*.ue[57].mobility.initialX = 1089.7130973071323m
*.ue[57].mobility.initialY = 2834.8796533351015m
*.ue[57].mobility.initialZ = 0m
*.ue[57].mobility.initFromDisplayString = false
*.ue[58].mobility.initialX = 906.2267191766452m
*.ue[58].mobility.initialY = 2869.1037391148766m
*.ue[58].mobility.initialZ = 0m
*.ue[58].mobility.initFromDisplayString = false
*.ue[59].mobility.initialX = 863.9723330839656m
*.ue[59].mobility.initialY = 2881.0353263909255m
*.ue[59].mobility.initialZ = 0m
*.ue[59].mobility.initFromDisplayString = false
*.ue[0].mobility.initialMovementHeading = 182.91945031291988deg
*.ue[1].mobility.initialMovementHeading = 289.632851115286deg
*.ue[2].mobility.initialMovementHeading = 346.4824263627461deg
*.ue[3].mobility.initialMovementHeading = 126.5117076692591deg
*.ue[4].mobility.initialMovementHeading = 108.33962214978077deg
*.ue[5].mobility.initialMovementHeading = 341.94370634285deg
*.ue[6].mobility.initialMovementHeading = 213.97687851635794deg
*.ue[7].mobility.initialMovementHeading = 17.819610969058335deg
*.ue[8].mobility.initialMovementHeading = 171.36926514222492deg
*.ue[9].mobility.initialMovementHeading = 126.88793868358466deg
*.ue[10].mobility.initialMovementHeading = 71.53614469425708deg
*.ue[11].mobility.initialMovementHeading = 305.80173094559984deg
*.ue[12].mobility.initialMovementHeading = 212.86933836044577deg
*.ue[13].mobility.initialMovementHeading = 270.6623221313777deg
*.ue[14].mobility.initialMovementHeading = 47.31041290544662deg
*.ue[15].mobility.initialMovementHeading = 298.94225331256905deg
*.ue[16].mobility.initialMovementHeading = 83.07150335099601deg
*.ue[17].mobility.initialMovementHeading = 138.92651397076992deg
*.ue[18].mobility.initialMovementHeading = 323.5677869760732deg
*.ue[19].mobility.initialMovementHeading = 163.7073330149737deg
*.ue[20].mobility.initialMovementHeading = 37.449048811373deg
*.ue[21].mobility.initialMovementHeading = 333.2551740077977deg
*.ue[22].mobility.initialMovementHeading = 64.22052406397484deg
*.ue[23].mobility.initialMovementHeading = 123.48180452994478deg
*.ue[24].mobility.initialMovementHeading = 342.8668021968346deg
*.ue[25].mobility.initialMovementHeading = 61.194128473681346deg
*.ue[26].mobility.initialMovementHeading = 73.65597316364355deg
*.ue[27].mobility.initialMovementHeading = 84.27788855404306deg
*.ue[28].mobility.initialMovementHeading = 323.716694558328deg
*.ue[29].mobility.initialMovementHeading = 347.415008608856deg
*.ue[30].mobility.initialMovementHeading = 293.95430762369386deg
*.ue[31].mobility.initialMovementHeading = 340.5065484017924deg
*.ue[32].mobility.initialMovementHeading = 256.0201032686357deg
*.ue[33].mobility.initialMovementHeading = 110.37015953653241deg
*.ue[34].mobility.initialMovementHeading = 152.69499238425774deg
*.ue[35].mobility.initialMovementHeading = 193.49649775761554deg
*.ue[36].mobility.initialMovementHeading = 345.074440747343deg
*.ue[37].mobility.initialMovementHeading = 337.4124224168245deg
*.ue[38].mobility.initialMovementHeading = 143.73485926869003deg
*.ue[39].mobility.initialMovementHeading = 103.29043175054362deg
*.ue[40].mobility.initialMovementHeading = 276.0055508971895deg
*.ue[41].mobility.initialMovementHeading = 129.56301314900676deg
*.ue[42].mobility.initialMovementHeading = 269.32220917573176deg
*.ue[43].mobility.initialMovementHeading = 6.474123341330635deg
*.ue[44].mobility.initialMovementHeading = 177.8560454662497deg
*.ue[45].mobility.initialMovementHeading = 334.38819772104966deg
*.ue[46].mobility.initialMovementHeading = 333.0092116682847deg
*.ue[47].mobility.initialMovementHeading = 312.6214537699332deg
*.ue[48].mobility.initialMovementHeading = 5.879095384124224deg
*.ue[49].mobility.initialMovementHeading = 306.92208780995514deg
*.ue[50].mobility.initialMovementHeading = 5.01697488125513deg
*.ue[51].mobility.initialMovementHeading = 116.44797837091888deg
*.ue[52].mobility.initialMovementHeading = 243.8995762854282deg
*.ue[53].mobility.initialMovementHeading = 282.28727626216255deg
*.ue[54].mobility.initialMovementHeading = 10.267577857368192deg
*.ue[55].mobility.initialMovementHeading = 162.48958285522306deg
*.ue[56].mobility.initialMovementHeading = 109.91232241306639deg
*.ue[57].mobility.initialMovementHeading = 275.0574547925895deg
*.ue[58].mobility.initialMovementHeading = 340.0973237695108deg
*.ue[59].mobility.initialMovementHeading = 316.9066135474831deg
*.ue[*].mobility.constraintAreaMaxX = 4000 m
*.ue[*].mobility.constraintAreaMaxY = 4000 m
*.ue[*].mobility.constraintAreaMaxZ = inf m
*.ue[*].mobility.constraintAreaMinX = 0 m
*.ue[*].mobility.constraintAreaMinY = 0 m
*.ue[*].mobility.constraintAreaMinZ = -inf m
