#Function: ilp_move_users
#Parameters:
#   filename: ../Network_CCOpMv/_5G/simulations/ilp_move_users-24.ini
#   seed: 24
#   size_y: 4000
#   size_x: 4000
#   size_sector: 400
#   n_macros: 1
#   config_name: ilp_move_users
#   num_slices: 10
#Extra = Using 1 macros with 60 ues each.
[General]
sim-time-limit = 10s

############### Statistics ###############
output-scalar-file = ${resultdir}/${configname}/${repetition}.sca
output-vector-file = ${resultdir}/${configname}/${repetition}.vec
**.vector-recording = false
eventlog-file = ${resultdir}/${configname}/${repetition}.elog
seed-set = ${repetition}

[Config ilp_move_users]
network = _5G.networks.SimpleNet
sim-time-limit = 10s
repeat = 1
seed-set = ${repetition}
num-rngs = 2
seed-1-mt = 24

output-scalar-file = ${resultdir}/${configname}/${repetition}.sca
output-vector-file = ${resultdir}/${configname}/${repetition}.vec
**.vector-recording = false
eventlog-file = ${resultdir}/${configname}/${repetition}.elog

############### Snapshots ###############
snapshot-file = ../../../Functions/ilp_move_users-24.sna
**.snapshotter.snapshot = true
**.snapshotter.delay = 1

############### Transmission Power ###############
**.ueTxPower = 24
**.eNodeBTxPower = 46
**.microTxPower = 30
**.cellularNic.phy.txDirection = "OMNI"

############### Channel Control ###############
**.numComponentCarriers = 1
*.carrierAggregation.componentCarrier[0].carrierFrequency = 0.7GHz

############### Channel Model ###############
**.cellularNic.LteChannelModelType = "LteRealisticChannelModel"
**.cellularNic.channelModel[*].building_height = 20
**.cellularNic.channelModel[*].nodeb_height = 25
**.cellularNic.channelModel[*].ue_height = 1.5
**.cellularNic.channelModel[*].street_wide = 20
**.cellularNic.channelModel[*].fading_type = "JAKES"
**.cellularNic.channelModel[*].extCell_interference = false
**.cellularNic.channelModel[*].antennGainEnB = 18
**.cellularNic.channelModel[*].antennGainMicro = 5
**.cellularNic.channelModel[*].antennaGainUe = 0
**.cellularNic.channelModel[*].bs_noise_figure = 5
**.cellularNic.channelModel[*].cable_loss = 2
**.cellularNic.channelModel[*].componentCarrierIndex = 0
**.cellularNic.channelModel[*].correlation_distance = 50
**.cellularNic.channelModel[*].d2d_interference = true
**.cellularNic.channelModel[*].delay_rms = 363e-9
**.cellularNic.channelModel[*].downlink_interference = false
**.cellularNic.channelModel[*].dynamic_los = false
**.cellularNic.channelModel[*].enable_extCell_los = true
**.cellularNic.channelModel[*].fading = true
**.cellularNic.channelModel[*].fading_paths = 6
**.cellularNic.channelModel[*].fixed_los = false
**.cellularNic.channelModel[*].harqReduction = 0.2
**.cellularNic.channelModel[*].inside_building = false
**.cellularNic.channelModel[*].lambdaMaxTh = 0.2
**.cellularNic.channelModel[*].lambdaMinTh = 0.02
**.cellularNic.channelModel[*].lambdaRatioTh = 20
**.cellularNic.channelModel[*].rsrqScale = 1.0
**.cellularNic.channelModel[*].rsrqShift = 22
**.cellularNic.channelModel[*].shadowing = true
**.cellularNic.channelModel[*].targetBler = 0.01
**.cellularNic.channelModel[*].thermalNoise = -104.5
**.cellularNic.channelModel[*].tolerateMaxDistViolation = true
**.cellularNic.channelModel[*].ue_noise_figure = 7
**.cellularNic.channelModel[*].uplink_interference = false
**.cellularNic.channelModel[*].useRsrqFromLog = false
**.cellularNic.channelModel[*].useTorus = false

############### Resource Blocks ###############
**.numBands = 6

############### UEs ###############
**.numUe = 60

# Conecting UEs to eNodeB
**.ue[0].macCellId = 1
**.ue[0].masterId = 1
**.ue[1].macCellId = 1
**.ue[1].masterId = 1
**.ue[2].macCellId = 1
**.ue[2].masterId = 1
**.ue[3].macCellId = 1
**.ue[3].masterId = 1
**.ue[4].macCellId = 1
**.ue[4].masterId = 1
**.ue[5].macCellId = 1
**.ue[5].masterId = 1
**.ue[6].macCellId = 1
**.ue[6].masterId = 1
**.ue[7].macCellId = 1
**.ue[7].masterId = 1
**.ue[8].macCellId = 1
**.ue[8].masterId = 1
**.ue[9].macCellId = 1
**.ue[9].masterId = 1
**.ue[10].macCellId = 1
**.ue[10].masterId = 1
**.ue[11].macCellId = 1
**.ue[11].masterId = 1
**.ue[12].macCellId = 1
**.ue[12].masterId = 1
**.ue[13].macCellId = 1
**.ue[13].masterId = 1
**.ue[14].macCellId = 1
**.ue[14].masterId = 1
**.ue[15].macCellId = 1
**.ue[15].masterId = 1
**.ue[16].macCellId = 1
**.ue[16].masterId = 1
**.ue[17].macCellId = 1
**.ue[17].masterId = 1
**.ue[18].macCellId = 1
**.ue[18].masterId = 1
**.ue[19].macCellId = 1
**.ue[19].masterId = 1
**.ue[20].macCellId = 1
**.ue[20].masterId = 1
**.ue[21].macCellId = 1
**.ue[21].masterId = 1
**.ue[22].macCellId = 1
**.ue[22].masterId = 1
**.ue[23].macCellId = 1
**.ue[23].masterId = 1
**.ue[24].macCellId = 1
**.ue[24].masterId = 1
**.ue[25].macCellId = 1
**.ue[25].masterId = 1
**.ue[26].macCellId = 1
**.ue[26].masterId = 1
**.ue[27].macCellId = 1
**.ue[27].masterId = 1
**.ue[28].macCellId = 1
**.ue[28].masterId = 1
**.ue[29].macCellId = 1
**.ue[29].masterId = 1
**.ue[30].macCellId = 1
**.ue[30].masterId = 1
**.ue[31].macCellId = 1
**.ue[31].masterId = 1
**.ue[32].macCellId = 1
**.ue[32].masterId = 1
**.ue[33].macCellId = 1
**.ue[33].masterId = 1
**.ue[34].macCellId = 1
**.ue[34].masterId = 1
**.ue[35].macCellId = 1
**.ue[35].masterId = 1
**.ue[36].macCellId = 1
**.ue[36].masterId = 1
**.ue[37].macCellId = 1
**.ue[37].masterId = 1
**.ue[38].macCellId = 1
**.ue[38].masterId = 1
**.ue[39].macCellId = 1
**.ue[39].masterId = 1
**.ue[40].macCellId = 1
**.ue[40].masterId = 1
**.ue[41].macCellId = 1
**.ue[41].masterId = 1
**.ue[42].macCellId = 1
**.ue[42].masterId = 1
**.ue[43].macCellId = 1
**.ue[43].masterId = 1
**.ue[44].macCellId = 1
**.ue[44].masterId = 1
**.ue[45].macCellId = 1
**.ue[45].masterId = 1
**.ue[46].macCellId = 1
**.ue[46].masterId = 1
**.ue[47].macCellId = 1
**.ue[47].masterId = 1
**.ue[48].macCellId = 1
**.ue[48].masterId = 1
**.ue[49].macCellId = 1
**.ue[49].masterId = 1
**.ue[50].macCellId = 1
**.ue[50].masterId = 1
**.ue[51].macCellId = 1
**.ue[51].masterId = 1
**.ue[52].macCellId = 1
**.ue[52].masterId = 1
**.ue[53].macCellId = 1
**.ue[53].masterId = 1
**.ue[54].macCellId = 1
**.ue[54].masterId = 1
**.ue[55].macCellId = 1
**.ue[55].masterId = 1
**.ue[56].macCellId = 1
**.ue[56].masterId = 1
**.ue[57].macCellId = 1
**.ue[57].masterId = 1
**.ue[58].macCellId = 1
**.ue[58].masterId = 1
**.ue[59].macCellId = 1
**.ue[59].masterId = 1

# Scheduler
**.schedulingDisciplineUl = ${sched= "MAXCI"}
**.schedulingDisciplineDl = ${sched}

############### Scenario ###############

# UEs
**.ue[0].cellularNic.channelModel[*].scenario = "URBAN_MACROCELL"
**.ue[1].cellularNic.channelModel[*].scenario = "URBAN_MACROCELL"
**.ue[2].cellularNic.channelModel[*].scenario = "URBAN_MACROCELL"
**.ue[3].cellularNic.channelModel[*].scenario = "URBAN_MACROCELL"
**.ue[4].cellularNic.channelModel[*].scenario = "URBAN_MACROCELL"
**.ue[5].cellularNic.channelModel[*].scenario = "URBAN_MACROCELL"
**.ue[6].cellularNic.channelModel[*].scenario = "URBAN_MACROCELL"
**.ue[7].cellularNic.channelModel[*].scenario = "URBAN_MACROCELL"
**.ue[8].cellularNic.channelModel[*].scenario = "URBAN_MACROCELL"
**.ue[9].cellularNic.channelModel[*].scenario = "URBAN_MACROCELL"
**.ue[10].cellularNic.channelModel[*].scenario = "URBAN_MACROCELL"
**.ue[11].cellularNic.channelModel[*].scenario = "URBAN_MACROCELL"
**.ue[12].cellularNic.channelModel[*].scenario = "URBAN_MACROCELL"
**.ue[13].cellularNic.channelModel[*].scenario = "URBAN_MACROCELL"
**.ue[14].cellularNic.channelModel[*].scenario = "URBAN_MACROCELL"
**.ue[15].cellularNic.channelModel[*].scenario = "URBAN_MACROCELL"
**.ue[16].cellularNic.channelModel[*].scenario = "URBAN_MACROCELL"
**.ue[17].cellularNic.channelModel[*].scenario = "URBAN_MACROCELL"
**.ue[18].cellularNic.channelModel[*].scenario = "URBAN_MACROCELL"
**.ue[19].cellularNic.channelModel[*].scenario = "URBAN_MACROCELL"
**.ue[20].cellularNic.channelModel[*].scenario = "URBAN_MACROCELL"
**.ue[21].cellularNic.channelModel[*].scenario = "URBAN_MACROCELL"
**.ue[22].cellularNic.channelModel[*].scenario = "URBAN_MACROCELL"
**.ue[23].cellularNic.channelModel[*].scenario = "URBAN_MACROCELL"
**.ue[24].cellularNic.channelModel[*].scenario = "URBAN_MACROCELL"
**.ue[25].cellularNic.channelModel[*].scenario = "URBAN_MACROCELL"
**.ue[26].cellularNic.channelModel[*].scenario = "URBAN_MACROCELL"
**.ue[27].cellularNic.channelModel[*].scenario = "URBAN_MACROCELL"
**.ue[28].cellularNic.channelModel[*].scenario = "URBAN_MACROCELL"
**.ue[29].cellularNic.channelModel[*].scenario = "URBAN_MACROCELL"
**.ue[30].cellularNic.channelModel[*].scenario = "URBAN_MACROCELL"
**.ue[31].cellularNic.channelModel[*].scenario = "URBAN_MACROCELL"
**.ue[32].cellularNic.channelModel[*].scenario = "URBAN_MACROCELL"
**.ue[33].cellularNic.channelModel[*].scenario = "URBAN_MACROCELL"
**.ue[34].cellularNic.channelModel[*].scenario = "URBAN_MACROCELL"
**.ue[35].cellularNic.channelModel[*].scenario = "URBAN_MACROCELL"
**.ue[36].cellularNic.channelModel[*].scenario = "URBAN_MACROCELL"
**.ue[37].cellularNic.channelModel[*].scenario = "URBAN_MACROCELL"
**.ue[38].cellularNic.channelModel[*].scenario = "URBAN_MACROCELL"
**.ue[39].cellularNic.channelModel[*].scenario = "URBAN_MACROCELL"
**.ue[40].cellularNic.channelModel[*].scenario = "URBAN_MACROCELL"
**.ue[41].cellularNic.channelModel[*].scenario = "URBAN_MACROCELL"
**.ue[42].cellularNic.channelModel[*].scenario = "URBAN_MACROCELL"
**.ue[43].cellularNic.channelModel[*].scenario = "URBAN_MACROCELL"
**.ue[44].cellularNic.channelModel[*].scenario = "URBAN_MACROCELL"
**.ue[45].cellularNic.channelModel[*].scenario = "URBAN_MACROCELL"
**.ue[46].cellularNic.channelModel[*].scenario = "URBAN_MACROCELL"
**.ue[47].cellularNic.channelModel[*].scenario = "URBAN_MACROCELL"
**.ue[48].cellularNic.channelModel[*].scenario = "URBAN_MACROCELL"
**.ue[49].cellularNic.channelModel[*].scenario = "URBAN_MACROCELL"
**.ue[50].cellularNic.channelModel[*].scenario = "URBAN_MACROCELL"
**.ue[51].cellularNic.channelModel[*].scenario = "URBAN_MACROCELL"
**.ue[52].cellularNic.channelModel[*].scenario = "URBAN_MACROCELL"
**.ue[53].cellularNic.channelModel[*].scenario = "URBAN_MACROCELL"
**.ue[54].cellularNic.channelModel[*].scenario = "URBAN_MACROCELL"
**.ue[55].cellularNic.channelModel[*].scenario = "URBAN_MACROCELL"
**.ue[56].cellularNic.channelModel[*].scenario = "URBAN_MACROCELL"
**.ue[57].cellularNic.channelModel[*].scenario = "URBAN_MACROCELL"
**.ue[58].cellularNic.channelModel[*].scenario = "URBAN_MACROCELL"
**.ue[59].cellularNic.channelModel[*].scenario = "URBAN_MACROCELL"

############### Mobility ###############

# UEs

*.ue[*].mobilityType = "VariableSpeedMobility"
*.ue[*].mobility.changeInterval = 1s
*.ue[*].mobility.meanSpeed = 3000mps
*.ue[*].mobility.standardDeviation = 1000
*.ue[0].mobility.initialX = 2673.2041158273746m
*.ue[0].mobility.initialY = 2659.4755804910274m
*.ue[0].mobility.initialZ = 0m
*.ue[0].mobility.initFromDisplayString = false
*.ue[1].mobility.initialX = 2594.0507826919006m
*.ue[1].mobility.initialY = 2783.3996829417806m
*.ue[1].mobility.initialZ = 0m
*.ue[1].mobility.initFromDisplayString = false
*.ue[2].mobility.initialX = 2686.9609419892113m
*.ue[2].mobility.initialY = 2791.234536983066m
*.ue[2].mobility.initialZ = 0m
*.ue[2].mobility.initFromDisplayString = false
*.ue[3].mobility.initialX = 2293.862501635058m
*.ue[3].mobility.initialY = 3144.880962275532m
*.ue[3].mobility.initialZ = 0m
*.ue[3].mobility.initFromDisplayString = false
*.ue[4].mobility.initialX = 2360.294657778274m
*.ue[4].mobility.initialY = 2875.376350190978m
*.ue[4].mobility.initialZ = 0m
*.ue[4].mobility.initFromDisplayString = false
*.ue[5].mobility.initialX = 2781.2872693393742m
*.ue[5].mobility.initialY = 3007.3296770838374m
*.ue[5].mobility.initialZ = 0m
*.ue[5].mobility.initFromDisplayString = false
*.ue[6].mobility.initialX = 2729.0093847729654m
*.ue[6].mobility.initialY = 3083.531770193629m
*.ue[6].mobility.initialZ = 0m
*.ue[6].mobility.initFromDisplayString = false
*.ue[7].mobility.initialX = 2795.3730719834466m
*.ue[7].mobility.initialY = 2974.905053558598m
*.ue[7].mobility.initialZ = 0m
*.ue[7].mobility.initFromDisplayString = false
*.ue[8].mobility.initialX = 2796.516466158699m
*.ue[8].mobility.initialY = 2989.3336029570896m
*.ue[8].mobility.initialZ = 0m
*.ue[8].mobility.initFromDisplayString = false
*.ue[9].mobility.initialX = 2775.004216921409m
*.ue[9].mobility.initialY = 3026.077617194346m
*.ue[9].mobility.initialZ = 0m
*.ue[9].mobility.initFromDisplayString = false
*.ue[10].mobility.initialX = 2769.9929655750843m
*.ue[10].mobility.initialY = 3038.637621993933m
*.ue[10].mobility.initialZ = 0m
*.ue[10].mobility.initFromDisplayString = false
*.ue[11].mobility.initialX = 2779.0920917358867m
*.ue[11].mobility.initialY = 2968.9684054529303m
*.ue[11].mobility.initialZ = 0m
*.ue[11].mobility.initFromDisplayString = false
*.ue[12].mobility.initialX = 2767.723264981641m
*.ue[12].mobility.initialY = 3045.730922177906m
*.ue[12].mobility.initialZ = 0m
*.ue[12].mobility.initFromDisplayString = false
*.ue[13].mobility.initialX = 2474.8809843859885m
*.ue[13].mobility.initialY = 3167.815885217834m
*.ue[13].mobility.initialZ = 0m
*.ue[13].mobility.initFromDisplayString = false
*.ue[14].mobility.initialX = 2798.599813221725m
*.ue[14].mobility.initialY = 2988.342695833209m
*.ue[14].mobility.initialZ = 0m
*.ue[14].mobility.initFromDisplayString = false
*.ue[15].mobility.initialX = 2793.9948915833015m
*.ue[15].mobility.initialY = 2994.3928994645253m
*.ue[15].mobility.initialZ = 0m
*.ue[15].mobility.initFromDisplayString = false
*.ue[16].mobility.initialX = 2795.869157990898m
*.ue[16].mobility.initialY = 2960.8286730316995m
*.ue[16].mobility.initialZ = 0m
*.ue[16].mobility.initFromDisplayString = false
*.ue[17].mobility.initialX = 2754.1158939015604m
*.ue[17].mobility.initialY = 2995.7056566811375m
*.ue[17].mobility.initialZ = 0m
*.ue[17].mobility.initFromDisplayString = false
*.ue[18].mobility.initialX = 2750.403739158726m
*.ue[18].mobility.initialY = 3013.658726855327m
*.ue[18].mobility.initialZ = 0m
*.ue[18].mobility.initFromDisplayString = false
*.ue[19].mobility.initialX = 2776.607697983846m
*.ue[19].mobility.initialY = 3070.04845987227m
*.ue[19].mobility.initialZ = 0m
*.ue[19].mobility.initFromDisplayString = false
*.ue[20].mobility.initialX = 2795.7335851493285m
*.ue[20].mobility.initialY = 3014.69059861275m
*.ue[20].mobility.initialZ = 0m
*.ue[20].mobility.initFromDisplayString = false
*.ue[21].mobility.initialX = 2753.122549937314m
*.ue[21].mobility.initialY = 3010.4807574187853m
*.ue[21].mobility.initialZ = 0m
*.ue[21].mobility.initFromDisplayString = false
*.ue[22].mobility.initialX = 2469.962453527817m
*.ue[22].mobility.initialY = 2998.817197916058m
*.ue[22].mobility.initialZ = 0m
*.ue[22].mobility.initFromDisplayString = false
*.ue[23].mobility.initialX = 2799.4074493653034m
*.ue[23].mobility.initialY = 3019.4268211712874m
*.ue[23].mobility.initialZ = 0m
*.ue[23].mobility.initFromDisplayString = false
*.ue[24].mobility.initialX = 2750.3100988280316m
*.ue[24].mobility.initialY = 3023.425720165984m
*.ue[24].mobility.initialZ = 0m
*.ue[24].mobility.initFromDisplayString = false
*.ue[25].mobility.initialX = 2783.735219632274m
*.ue[25].mobility.initialY = 3022.9435167153806m
*.ue[25].mobility.initialZ = 0m
*.ue[25].mobility.initFromDisplayString = false
*.ue[26].mobility.initialX = 2780.531114690523m
*.ue[26].mobility.initialY = 3024.6842440659198m
*.ue[26].mobility.initialZ = 0m
*.ue[26].mobility.initFromDisplayString = false
*.ue[27].mobility.initialX = 2510.8362541255406m
*.ue[27].mobility.initialY = 2851.1856709967005m
*.ue[27].mobility.initialZ = 0m
*.ue[27].mobility.initFromDisplayString = false
*.ue[28].mobility.initialX = 2780.966824226815m
*.ue[28].mobility.initialY = 2983.1628703954516m
*.ue[28].mobility.initialZ = 0m
*.ue[28].mobility.initFromDisplayString = false
*.ue[29].mobility.initialX = 2819.654719072223m
*.ue[29].mobility.initialY = 2996.2572571097717m
*.ue[29].mobility.initialZ = 0m
*.ue[29].mobility.initFromDisplayString = false
*.ue[30].mobility.initialX = 2870.641526841012m
*.ue[30].mobility.initialY = 3063.6451211168073m
*.ue[30].mobility.initialZ = 0m
*.ue[30].mobility.initFromDisplayString = false
*.ue[31].mobility.initialX = 2819.977703044422m
*.ue[31].mobility.initialY = 2997.061980112821m
*.ue[31].mobility.initialZ = 0m
*.ue[31].mobility.initFromDisplayString = false
*.ue[32].mobility.initialX = 2881.89856131498m
*.ue[32].mobility.initialY = 3014.247646782209m
*.ue[32].mobility.initialZ = 0m
*.ue[32].mobility.initFromDisplayString = false
*.ue[33].mobility.initialX = 2874.627872930719m
*.ue[33].mobility.initialY = 3054.7811367225218m
*.ue[33].mobility.initialZ = 0m
*.ue[33].mobility.initFromDisplayString = false
*.ue[34].mobility.initialX = 2825.2059507412296m
*.ue[34].mobility.initialY = 2947.842417593513m
*.ue[34].mobility.initialZ = 0m
*.ue[34].mobility.initFromDisplayString = false
*.ue[35].mobility.initialX = 2802.596158117399m
*.ue[35].mobility.initialY = 3022.5506000790047m
*.ue[35].mobility.initialZ = 0m
*.ue[35].mobility.initFromDisplayString = false
*.ue[36].mobility.initialX = 2832.144008108548m
*.ue[36].mobility.initialY = 3016.524630532656m
*.ue[36].mobility.initialZ = 0m
*.ue[36].mobility.initFromDisplayString = false
*.ue[37].mobility.initialX = 2807.8744869965103m
*.ue[37].mobility.initialY = 3048.5259763038885m
*.ue[37].mobility.initialZ = 0m
*.ue[37].mobility.initFromDisplayString = false
*.ue[38].mobility.initialX = 2861.9399184280182m
*.ue[38].mobility.initialY = 3037.198575692611m
*.ue[38].mobility.initialZ = 0m
*.ue[38].mobility.initFromDisplayString = false
*.ue[39].mobility.initialX = 2886.441171526477m
*.ue[39].mobility.initialY = 2836.5221475827693m
*.ue[39].mobility.initialZ = 0m
*.ue[39].mobility.initFromDisplayString = false
*.ue[40].mobility.initialX = 2846.600511997658m
*.ue[40].mobility.initialY = 3026.2696058279707m
*.ue[40].mobility.initialZ = 0m
*.ue[40].mobility.initFromDisplayString = false
*.ue[41].mobility.initialX = 2802.6968847154167m
*.ue[41].mobility.initialY = 2967.695602891281m
*.ue[41].mobility.initialZ = 0m
*.ue[41].mobility.initFromDisplayString = false
*.ue[42].mobility.initialX = 2862.368370697829m
*.ue[42].mobility.initialY = 3041.026698031485m
*.ue[42].mobility.initialZ = 0m
*.ue[42].mobility.initFromDisplayString = false
*.ue[43].mobility.initialX = 2858.210992475267m
*.ue[43].mobility.initialY = 2960.1449755136728m
*.ue[43].mobility.initialZ = 0m
*.ue[43].mobility.initFromDisplayString = false
*.ue[44].mobility.initialX = 2837.1879920284946m
*.ue[44].mobility.initialY = 3037.613076823635m
*.ue[44].mobility.initialZ = 0m
*.ue[44].mobility.initFromDisplayString = false
*.ue[45].mobility.initialX = 2870.098553930149m
*.ue[45].mobility.initialY = 2999.2338839208423m
*.ue[45].mobility.initialZ = 0m
*.ue[45].mobility.initFromDisplayString = false
*.ue[46].mobility.initialX = 2850.7687746665065m
*.ue[46].mobility.initialY = 3013.508672795576m
*.ue[46].mobility.initialZ = 0m
*.ue[46].mobility.initFromDisplayString = false
*.ue[47].mobility.initialX = 2811.8379644892734m
*.ue[47].mobility.initialY = 2954.5275597573695m
*.ue[47].mobility.initialZ = 0m
*.ue[47].mobility.initFromDisplayString = false
*.ue[48].mobility.initialX = 2818.0318017040463m
*.ue[48].mobility.initialY = 2959.7508868076698m
*.ue[48].mobility.initialZ = 0m
*.ue[48].mobility.initFromDisplayString = false
*.ue[49].mobility.initialX = 2866.672737871316m
*.ue[49].mobility.initialY = 2995.563578746696m
*.ue[49].mobility.initialZ = 0m
*.ue[49].mobility.initFromDisplayString = false
*.ue[50].mobility.initialX = 2831.737793425122m
*.ue[50].mobility.initialY = 3073.9318535445473m
*.ue[50].mobility.initialZ = 0m
*.ue[50].mobility.initFromDisplayString = false
*.ue[51].mobility.initialX = 2834.8360161783876m
*.ue[51].mobility.initialY = 2994.1939031117668m
*.ue[51].mobility.initialZ = 0m
*.ue[51].mobility.initFromDisplayString = false
*.ue[52].mobility.initialX = 2802.162415470372m
*.ue[52].mobility.initialY = 3000.7235786469687m
*.ue[52].mobility.initialZ = 0m
*.ue[52].mobility.initFromDisplayString = false
*.ue[53].mobility.initialX = 2839.3406764156566m
*.ue[53].mobility.initialY = 3082.8756282798017m
*.ue[53].mobility.initialZ = 0m
*.ue[53].mobility.initFromDisplayString = false
*.ue[54].mobility.initialX = 2817.8350940665564m
*.ue[54].mobility.initialY = 3021.445567733641m
*.ue[54].mobility.initialZ = 0m
*.ue[54].mobility.initFromDisplayString = false
*.ue[55].mobility.initialX = 2949.259044132483m
*.ue[55].mobility.initialY = 2811.780858336781m
*.ue[55].mobility.initialZ = 0m
*.ue[55].mobility.initFromDisplayString = false
*.ue[56].mobility.initialX = 2471.977369253308m
*.ue[56].mobility.initialY = 3393.2570230656966m
*.ue[56].mobility.initialZ = 0m
*.ue[56].mobility.initFromDisplayString = false
*.ue[57].mobility.initialX = 2430.9080371723335m
*.ue[57].mobility.initialY = 3270.1217538089804m
*.ue[57].mobility.initialZ = 0m
*.ue[57].mobility.initFromDisplayString = false
*.ue[58].mobility.initialX = 2407.4527533569467m
*.ue[58].mobility.initialY = 3334.5877264937826m
*.ue[58].mobility.initialZ = 0m
*.ue[58].mobility.initFromDisplayString = false
*.ue[59].mobility.initialX = 2937.9116651575523m
*.ue[59].mobility.initialY = 3249.2745537428486m
*.ue[59].mobility.initialZ = 0m
*.ue[59].mobility.initFromDisplayString = false
*.ue[0].mobility.initialMovementHeading = 57.74733337319367deg
*.ue[1].mobility.initialMovementHeading = 185.14490692376384deg
*.ue[2].mobility.initialMovementHeading = 325.9602119328608deg
*.ue[3].mobility.initialMovementHeading = 343.8699485393679deg
*.ue[4].mobility.initialMovementHeading = 107.05023629036934deg
*.ue[5].mobility.initialMovementHeading = 181.28695758560912deg
*.ue[6].mobility.initialMovementHeading = 259.80369779301583deg
*.ue[7].mobility.initialMovementHeading = 92.9315148907897deg
*.ue[8].mobility.initialMovementHeading = 305.63615951068715deg
*.ue[9].mobility.initialMovementHeading = 179.11446302318566deg
*.ue[10].mobility.initialMovementHeading = 187.8000769713391deg
*.ue[11].mobility.initialMovementHeading = 240.8828191858592deg
*.ue[12].mobility.initialMovementHeading = 61.36135261087265deg
*.ue[13].mobility.initialMovementHeading = 213.3999536235214deg
*.ue[14].mobility.initialMovementHeading = 228.49597397034114deg
*.ue[15].mobility.initialMovementHeading = 87.5313474778866deg
*.ue[16].mobility.initialMovementHeading = 45.94954809449661deg
*.ue[17].mobility.initialMovementHeading = 155.23389133481493deg
*.ue[18].mobility.initialMovementHeading = 51.46736318614764deg
*.ue[19].mobility.initialMovementHeading = 141.40756617508038deg
*.ue[20].mobility.initialMovementHeading = 57.60350767604975deg
*.ue[21].mobility.initialMovementHeading = 83.25431375633433deg
*.ue[22].mobility.initialMovementHeading = 346.71641458892213deg
*.ue[23].mobility.initialMovementHeading = 19.13328359602099deg
*.ue[24].mobility.initialMovementHeading = 56.3883388608779deg
*.ue[25].mobility.initialMovementHeading = 301.88996854222904deg
*.ue[26].mobility.initialMovementHeading = 66.83669165058089deg
*.ue[27].mobility.initialMovementHeading = 286.6583878501889deg
*.ue[28].mobility.initialMovementHeading = 2.498367787026252deg
*.ue[29].mobility.initialMovementHeading = 133.06082350716355deg
*.ue[30].mobility.initialMovementHeading = 67.61444890444528deg
*.ue[31].mobility.initialMovementHeading = 81.99749856164362deg
*.ue[32].mobility.initialMovementHeading = 0.8608639865258416deg
*.ue[33].mobility.initialMovementHeading = 191.9216222288098deg
*.ue[34].mobility.initialMovementHeading = 52.89201003505761deg
*.ue[35].mobility.initialMovementHeading = 264.1582613357281deg
*.ue[36].mobility.initialMovementHeading = 140.25740831899952deg
*.ue[37].mobility.initialMovementHeading = 331.36240510898614deg
*.ue[38].mobility.initialMovementHeading = 230.82540276650366deg
*.ue[39].mobility.initialMovementHeading = 120.73974868324845deg
*.ue[40].mobility.initialMovementHeading = 311.4932052192096deg
*.ue[41].mobility.initialMovementHeading = 207.65347330246757deg
*.ue[42].mobility.initialMovementHeading = 357.3897140067962deg
*.ue[43].mobility.initialMovementHeading = 243.0858837106615deg
*.ue[44].mobility.initialMovementHeading = 260.12988214523966deg
*.ue[45].mobility.initialMovementHeading = 173.91258411203907deg
*.ue[46].mobility.initialMovementHeading = 0.32914741967882133deg
*.ue[47].mobility.initialMovementHeading = 59.16541960341209deg
*.ue[48].mobility.initialMovementHeading = 90.56440200709615deg
*.ue[49].mobility.initialMovementHeading = 314.72840740597064deg
*.ue[50].mobility.initialMovementHeading = 28.815479687452644deg
*.ue[51].mobility.initialMovementHeading = 153.10963764303366deg
*.ue[52].mobility.initialMovementHeading = 11.882369207991083deg
*.ue[53].mobility.initialMovementHeading = 319.6782619337633deg
*.ue[54].mobility.initialMovementHeading = 133.7580638854426deg
*.ue[55].mobility.initialMovementHeading = 130.99351456544443deg
*.ue[56].mobility.initialMovementHeading = 258.97618477249875deg
*.ue[57].mobility.initialMovementHeading = 23.481372336346908deg
*.ue[58].mobility.initialMovementHeading = 228.77982558112052deg
*.ue[59].mobility.initialMovementHeading = 17.670071949841297deg
*.ue[*].mobility.constraintAreaMaxX = 4000 m
*.ue[*].mobility.constraintAreaMaxY = 4000 m
*.ue[*].mobility.constraintAreaMaxZ = inf m
*.ue[*].mobility.constraintAreaMinX = 0 m
*.ue[*].mobility.constraintAreaMinY = 0 m
*.ue[*].mobility.constraintAreaMinZ = -inf m
