[General]
sim-time-limit = 10s

############### Statistics ###############
output-scalar-file = ${resultdir}/${configname}/${repetition}.sca
output-vector-file = ${resultdir}/${configname}/${repetition}.vec
**.vector-recording = false
seed-set = ${repetition}

############### Resource Blocks ###############
**.numRbDl = 6
**.numRbUl = 6
**.binder.numBands = 6 # this value should be kept equal to the number of RBs

[Config UrbanMacrocell5G]
network = _5G.networks.UrbanMacro5G
sim-time-limit = 10s
repeat = 10
seed-set = ${repetition}
num-rngs = 2
seed-1-mt = 123

output-scalar-file = ${resultdir}/${configname}/${sched}-${repetition}.sca
output-vector-file = ${resultdir}/${configname}/${sched}-${repetition}.vec
**.vector-recording = false

############### Micro Cell ###############
**.microCell.cellInfo.microCell = true

############### Transmission Power ###############
**.ueTxPower = 24
**.eNodeBTxPower = 46
**.microTxPower = 30

############### UEs ###############
**.numUe = 200

# Conecting UEs to eNodeB
**.ue[0].macCellId = 1
**.ue[0].masterId = 1
**.ue[1].macCellId = 1
**.ue[1].masterId = 1
**.ue[2].macCellId = 1
**.ue[2].masterId = 1
**.ue[3].macCellId = 1
**.ue[3].masterId = 1
**.ue[4].macCellId = 1
**.ue[4].masterId = 1
**.ue[5].macCellId = 1
**.ue[5].masterId = 1
**.ue[6].macCellId = 1
**.ue[6].masterId = 1
**.ue[7].macCellId = 1
**.ue[7].masterId = 1
**.ue[8].macCellId = 1
**.ue[8].masterId = 1
**.ue[9].macCellId = 1
**.ue[9].masterId = 1
**.ue[10].macCellId = 1
**.ue[10].masterId = 1
**.ue[11].macCellId = 1
**.ue[11].masterId = 1
**.ue[12].macCellId = 1
**.ue[12].masterId = 1
**.ue[13].macCellId = 1
**.ue[13].masterId = 1
**.ue[14].macCellId = 1
**.ue[14].masterId = 1
**.ue[15].macCellId = 1
**.ue[15].masterId = 1
**.ue[16].macCellId = 1
**.ue[16].masterId = 1
**.ue[17].macCellId = 1
**.ue[17].masterId = 1
**.ue[18].macCellId = 1
**.ue[18].masterId = 1
**.ue[19].macCellId = 1
**.ue[19].masterId = 1
**.ue[20].macCellId = 1
**.ue[20].masterId = 1
**.ue[21].macCellId = 1
**.ue[21].masterId = 1
**.ue[22].macCellId = 1
**.ue[22].masterId = 1
**.ue[23].macCellId = 1
**.ue[23].masterId = 1
**.ue[24].macCellId = 1
**.ue[24].masterId = 1
**.ue[25].macCellId = 1
**.ue[25].masterId = 1
**.ue[26].macCellId = 1
**.ue[26].masterId = 1
**.ue[27].macCellId = 1
**.ue[27].masterId = 1
**.ue[28].macCellId = 1
**.ue[28].masterId = 1
**.ue[29].macCellId = 1
**.ue[29].masterId = 1
**.ue[30].macCellId = 1
**.ue[30].masterId = 1
**.ue[31].macCellId = 1
**.ue[31].masterId = 1
**.ue[32].macCellId = 1
**.ue[32].masterId = 1
**.ue[33].macCellId = 1
**.ue[33].masterId = 1
**.ue[34].macCellId = 1
**.ue[34].masterId = 1
**.ue[35].macCellId = 1
**.ue[35].masterId = 1
**.ue[36].macCellId = 1
**.ue[36].masterId = 1
**.ue[37].macCellId = 1
**.ue[37].masterId = 1
**.ue[38].macCellId = 1
**.ue[38].masterId = 1
**.ue[39].macCellId = 1
**.ue[39].masterId = 1
**.ue[40].macCellId = 1
**.ue[40].masterId = 1
**.ue[41].macCellId = 1
**.ue[41].masterId = 1
**.ue[42].macCellId = 1
**.ue[42].masterId = 1
**.ue[43].macCellId = 1
**.ue[43].masterId = 1
**.ue[44].macCellId = 1
**.ue[44].masterId = 1
**.ue[45].macCellId = 1
**.ue[45].masterId = 1
**.ue[46].macCellId = 1
**.ue[46].masterId = 1
**.ue[47].macCellId = 1
**.ue[47].masterId = 1
**.ue[48].macCellId = 1
**.ue[48].masterId = 1
**.ue[49].macCellId = 1
**.ue[49].masterId = 1
**.ue[50].macCellId = 1
**.ue[50].masterId = 1
**.ue[51].macCellId = 1
**.ue[51].masterId = 1
**.ue[52].macCellId = 1
**.ue[52].masterId = 1
**.ue[53].macCellId = 1
**.ue[53].masterId = 1
**.ue[54].macCellId = 1
**.ue[54].masterId = 1
**.ue[55].macCellId = 1
**.ue[55].masterId = 1
**.ue[56].macCellId = 1
**.ue[56].masterId = 1
**.ue[57].macCellId = 1
**.ue[57].masterId = 1
**.ue[58].macCellId = 1
**.ue[58].masterId = 1
**.ue[59].macCellId = 1
**.ue[59].masterId = 1
**.ue[60].macCellId = 1
**.ue[60].masterId = 1
**.ue[61].macCellId = 1
**.ue[61].masterId = 1
**.ue[62].macCellId = 1
**.ue[62].masterId = 1
**.ue[63].macCellId = 1
**.ue[63].masterId = 1
**.ue[64].macCellId = 1
**.ue[64].masterId = 1
**.ue[65].macCellId = 1
**.ue[65].masterId = 1
**.ue[66].macCellId = 1
**.ue[66].masterId = 1
**.ue[67].macCellId = 1
**.ue[67].masterId = 1
**.ue[68].macCellId = 1
**.ue[68].masterId = 1
**.ue[69].macCellId = 2
**.ue[69].masterId = 2
**.ue[70].macCellId = 2
**.ue[70].masterId = 2
**.ue[71].macCellId = 2
**.ue[71].masterId = 2
**.ue[72].macCellId = 2
**.ue[72].masterId = 2
**.ue[73].macCellId = 2
**.ue[73].masterId = 2
**.ue[74].macCellId = 2
**.ue[74].masterId = 2
**.ue[75].macCellId = 2
**.ue[75].masterId = 2
**.ue[76].macCellId = 2
**.ue[76].masterId = 2
**.ue[77].macCellId = 2
**.ue[77].masterId = 2
**.ue[78].macCellId = 2
**.ue[78].masterId = 2
**.ue[79].macCellId = 2
**.ue[79].masterId = 2
**.ue[80].macCellId = 2
**.ue[80].masterId = 2
**.ue[81].macCellId = 2
**.ue[81].masterId = 2
**.ue[82].macCellId = 2
**.ue[82].masterId = 2
**.ue[83].macCellId = 2
**.ue[83].masterId = 2
**.ue[84].macCellId = 2
**.ue[84].masterId = 2
**.ue[85].macCellId = 2
**.ue[85].masterId = 2
**.ue[86].macCellId = 2
**.ue[86].masterId = 2
**.ue[87].macCellId = 2
**.ue[87].masterId = 2
**.ue[88].macCellId = 2
**.ue[88].masterId = 2
**.ue[89].macCellId = 2
**.ue[89].masterId = 2
**.ue[90].macCellId = 2
**.ue[90].masterId = 2
**.ue[91].macCellId = 2
**.ue[91].masterId = 2
**.ue[92].macCellId = 2
**.ue[92].masterId = 2
**.ue[93].macCellId = 2
**.ue[93].masterId = 2
**.ue[94].macCellId = 2
**.ue[94].masterId = 2
**.ue[95].macCellId = 2
**.ue[95].masterId = 2
**.ue[96].macCellId = 2
**.ue[96].masterId = 2
**.ue[97].macCellId = 2
**.ue[97].masterId = 2
**.ue[98].macCellId = 2
**.ue[98].masterId = 2
**.ue[99].macCellId = 2
**.ue[99].masterId = 2
**.ue[100].macCellId = 2
**.ue[100].masterId = 2
**.ue[101].macCellId = 2
**.ue[101].masterId = 2
**.ue[102].macCellId = 2
**.ue[102].masterId = 2
**.ue[103].macCellId = 2
**.ue[103].masterId = 2
**.ue[104].macCellId = 2
**.ue[104].masterId = 2
**.ue[105].macCellId = 2
**.ue[105].masterId = 2
**.ue[106].macCellId = 2
**.ue[106].masterId = 2
**.ue[107].macCellId = 2
**.ue[107].masterId = 2
**.ue[108].macCellId = 2
**.ue[108].masterId = 2
**.ue[109].macCellId = 2
**.ue[109].masterId = 2
**.ue[110].macCellId = 2
**.ue[110].masterId = 2
**.ue[111].macCellId = 2
**.ue[111].masterId = 2
**.ue[112].macCellId = 2
**.ue[112].masterId = 2
**.ue[113].macCellId = 2
**.ue[113].masterId = 2
**.ue[114].macCellId = 2
**.ue[114].masterId = 2
**.ue[115].macCellId = 2
**.ue[115].masterId = 2
**.ue[116].macCellId = 2
**.ue[116].masterId = 2
**.ue[117].macCellId = 2
**.ue[117].masterId = 2
**.ue[118].macCellId = 2
**.ue[118].masterId = 2
**.ue[119].macCellId = 2
**.ue[119].masterId = 2
**.ue[120].macCellId = 2
**.ue[120].masterId = 2
**.ue[121].macCellId = 2
**.ue[121].masterId = 2
**.ue[122].macCellId = 2
**.ue[122].masterId = 2
**.ue[123].macCellId = 2
**.ue[123].masterId = 2
**.ue[124].macCellId = 2
**.ue[124].masterId = 2
**.ue[125].macCellId = 2
**.ue[125].masterId = 2
**.ue[126].macCellId = 2
**.ue[126].masterId = 2
**.ue[127].macCellId = 2
**.ue[127].masterId = 2
**.ue[128].macCellId = 2
**.ue[128].masterId = 2
**.ue[129].macCellId = 2
**.ue[129].masterId = 2
**.ue[130].macCellId = 2
**.ue[130].masterId = 2
**.ue[131].macCellId = 2
**.ue[131].masterId = 2
**.ue[132].macCellId = 2
**.ue[132].masterId = 2
**.ue[133].macCellId = 2
**.ue[133].masterId = 2
**.ue[134].macCellId = 2
**.ue[134].masterId = 2
**.ue[135].macCellId = 2
**.ue[135].masterId = 2
**.ue[136].macCellId = 2
**.ue[136].masterId = 2
**.ue[137].macCellId = 2
**.ue[137].masterId = 2
**.ue[138].macCellId = 2
**.ue[138].masterId = 2
**.ue[139].macCellId = 2
**.ue[139].masterId = 2
**.ue[140].macCellId = 2
**.ue[140].masterId = 2
**.ue[141].macCellId = 2
**.ue[141].masterId = 2
**.ue[142].macCellId = 2
**.ue[142].masterId = 2
**.ue[143].macCellId = 2
**.ue[143].masterId = 2
**.ue[144].macCellId = 2
**.ue[144].masterId = 2
**.ue[145].macCellId = 2
**.ue[145].masterId = 2
**.ue[146].macCellId = 2
**.ue[146].masterId = 2
**.ue[147].macCellId = 2
**.ue[147].masterId = 2
**.ue[148].macCellId = 2
**.ue[148].masterId = 2
**.ue[149].macCellId = 2
**.ue[149].masterId = 2
**.ue[150].macCellId = 2
**.ue[150].masterId = 2
**.ue[151].macCellId = 2
**.ue[151].masterId = 2
**.ue[152].macCellId = 2
**.ue[152].masterId = 2
**.ue[153].macCellId = 2
**.ue[153].masterId = 2
**.ue[154].macCellId = 2
**.ue[154].masterId = 2
**.ue[155].macCellId = 2
**.ue[155].masterId = 2
**.ue[156].macCellId = 2
**.ue[156].masterId = 2
**.ue[157].macCellId = 2
**.ue[157].masterId = 2
**.ue[158].macCellId = 2
**.ue[158].masterId = 2
**.ue[159].macCellId = 2
**.ue[159].masterId = 2
**.ue[160].macCellId = 2
**.ue[160].masterId = 2
**.ue[161].macCellId = 2
**.ue[161].masterId = 2
**.ue[162].macCellId = 2
**.ue[162].masterId = 2
**.ue[163].macCellId = 2
**.ue[163].masterId = 2
**.ue[164].macCellId = 2
**.ue[164].masterId = 2
**.ue[165].macCellId = 2
**.ue[165].masterId = 2
**.ue[166].macCellId = 2
**.ue[166].masterId = 2
**.ue[167].macCellId = 2
**.ue[167].masterId = 2
**.ue[168].macCellId = 2
**.ue[168].masterId = 2
**.ue[169].macCellId = 2
**.ue[169].masterId = 2
**.ue[170].macCellId = 2
**.ue[170].masterId = 2
**.ue[171].macCellId = 2
**.ue[171].masterId = 2
**.ue[172].macCellId = 2
**.ue[172].masterId = 2
**.ue[173].macCellId = 2
**.ue[173].masterId = 2
**.ue[174].macCellId = 2
**.ue[174].masterId = 2
**.ue[175].macCellId = 2
**.ue[175].masterId = 2
**.ue[176].macCellId = 2
**.ue[176].masterId = 2
**.ue[177].macCellId = 2
**.ue[177].masterId = 2
**.ue[178].macCellId = 2
**.ue[178].masterId = 2
**.ue[179].macCellId = 2
**.ue[179].masterId = 2
**.ue[180].macCellId = 2
**.ue[180].masterId = 2
**.ue[181].macCellId = 2
**.ue[181].masterId = 2
**.ue[182].macCellId = 2
**.ue[182].masterId = 2
**.ue[183].macCellId = 2
**.ue[183].masterId = 2
**.ue[184].macCellId = 2
**.ue[184].masterId = 2
**.ue[185].macCellId = 2
**.ue[185].masterId = 2
**.ue[186].macCellId = 2
**.ue[186].masterId = 2
**.ue[187].macCellId = 2
**.ue[187].masterId = 2
**.ue[188].macCellId = 2
**.ue[188].masterId = 2
**.ue[189].macCellId = 2
**.ue[189].masterId = 2
**.ue[190].macCellId = 2
**.ue[190].masterId = 2
**.ue[191].macCellId = 2
**.ue[191].masterId = 2
**.ue[192].macCellId = 2
**.ue[192].masterId = 2
**.ue[193].macCellId = 2
**.ue[193].masterId = 2
**.ue[194].macCellId = 2
**.ue[194].masterId = 2
**.ue[195].macCellId = 2
**.ue[195].masterId = 2
**.ue[196].macCellId = 2
**.ue[196].masterId = 2
**.ue[197].macCellId = 2
**.ue[197].masterId = 2
**.ue[198].macCellId = 2
**.ue[198].masterId = 2
**.ue[199].macCellId = 2
**.ue[199].masterId = 2

# Scheduler
**.schedulingDisciplineUl = ${sched= "MAXCI", "DRR", "PF", "ALLOCATOR_BESTFIT"}
**.schedulingDisciplineDl = ${sched}

############### Mobility ###############

# eNodeB
**.eNB.cellularNic.channelModel[*].scenario = "URBAN_MACROCELL"

# Microcell
**.microCell.cellularNic.channelModel[*].scenario = "URBAN_MICROCELL"

# UEs
**.ue[0].cellularNic.channelModel[*].scenario = "URBAN_MACROCELL"
**.ue[1].cellularNic.channelModel[*].scenario = "URBAN_MACROCELL"
**.ue[2].cellularNic.channelModel[*].scenario = "URBAN_MACROCELL"
**.ue[3].cellularNic.channelModel[*].scenario = "URBAN_MACROCELL"
**.ue[4].cellularNic.channelModel[*].scenario = "URBAN_MACROCELL"
**.ue[5].cellularNic.channelModel[*].scenario = "URBAN_MACROCELL"
**.ue[6].cellularNic.channelModel[*].scenario = "URBAN_MACROCELL"
**.ue[7].cellularNic.channelModel[*].scenario = "URBAN_MACROCELL"
**.ue[8].cellularNic.channelModel[*].scenario = "URBAN_MACROCELL"
**.ue[9].cellularNic.channelModel[*].scenario = "URBAN_MACROCELL"
**.ue[10].cellularNic.channelModel[*].scenario = "URBAN_MACROCELL"
**.ue[11].cellularNic.channelModel[*].scenario = "URBAN_MACROCELL"
**.ue[12].cellularNic.channelModel[*].scenario = "URBAN_MACROCELL"
**.ue[13].cellularNic.channelModel[*].scenario = "URBAN_MACROCELL"
**.ue[14].cellularNic.channelModel[*].scenario = "URBAN_MACROCELL"
**.ue[15].cellularNic.channelModel[*].scenario = "URBAN_MACROCELL"
**.ue[16].cellularNic.channelModel[*].scenario = "URBAN_MACROCELL"
**.ue[17].cellularNic.channelModel[*].scenario = "URBAN_MACROCELL"
**.ue[18].cellularNic.channelModel[*].scenario = "URBAN_MACROCELL"
**.ue[19].cellularNic.channelModel[*].scenario = "URBAN_MACROCELL"
**.ue[20].cellularNic.channelModel[*].scenario = "URBAN_MACROCELL"
**.ue[21].cellularNic.channelModel[*].scenario = "URBAN_MACROCELL"
**.ue[22].cellularNic.channelModel[*].scenario = "URBAN_MACROCELL"
**.ue[23].cellularNic.channelModel[*].scenario = "URBAN_MACROCELL"
**.ue[24].cellularNic.channelModel[*].scenario = "URBAN_MACROCELL"
**.ue[25].cellularNic.channelModel[*].scenario = "URBAN_MACROCELL"
**.ue[26].cellularNic.channelModel[*].scenario = "URBAN_MACROCELL"
**.ue[27].cellularNic.channelModel[*].scenario = "URBAN_MACROCELL"
**.ue[28].cellularNic.channelModel[*].scenario = "URBAN_MACROCELL"
**.ue[29].cellularNic.channelModel[*].scenario = "URBAN_MACROCELL"
**.ue[30].cellularNic.channelModel[*].scenario = "URBAN_MACROCELL"
**.ue[31].cellularNic.channelModel[*].scenario = "URBAN_MACROCELL"
**.ue[32].cellularNic.channelModel[*].scenario = "URBAN_MACROCELL"
**.ue[33].cellularNic.channelModel[*].scenario = "URBAN_MACROCELL"
**.ue[34].cellularNic.channelModel[*].scenario = "URBAN_MACROCELL"
**.ue[35].cellularNic.channelModel[*].scenario = "URBAN_MACROCELL"
**.ue[36].cellularNic.channelModel[*].scenario = "URBAN_MACROCELL"
**.ue[37].cellularNic.channelModel[*].scenario = "URBAN_MACROCELL"
**.ue[38].cellularNic.channelModel[*].scenario = "URBAN_MACROCELL"
**.ue[39].cellularNic.channelModel[*].scenario = "URBAN_MACROCELL"
**.ue[40].cellularNic.channelModel[*].scenario = "URBAN_MACROCELL"
**.ue[41].cellularNic.channelModel[*].scenario = "URBAN_MACROCELL"
**.ue[42].cellularNic.channelModel[*].scenario = "URBAN_MACROCELL"
**.ue[43].cellularNic.channelModel[*].scenario = "URBAN_MACROCELL"
**.ue[44].cellularNic.channelModel[*].scenario = "URBAN_MACROCELL"
**.ue[45].cellularNic.channelModel[*].scenario = "URBAN_MACROCELL"
**.ue[46].cellularNic.channelModel[*].scenario = "URBAN_MACROCELL"
**.ue[47].cellularNic.channelModel[*].scenario = "URBAN_MACROCELL"
**.ue[48].cellularNic.channelModel[*].scenario = "URBAN_MACROCELL"
**.ue[49].cellularNic.channelModel[*].scenario = "URBAN_MACROCELL"
**.ue[50].cellularNic.channelModel[*].scenario = "URBAN_MACROCELL"
**.ue[51].cellularNic.channelModel[*].scenario = "URBAN_MACROCELL"
**.ue[52].cellularNic.channelModel[*].scenario = "URBAN_MACROCELL"
**.ue[53].cellularNic.channelModel[*].scenario = "URBAN_MACROCELL"
**.ue[54].cellularNic.channelModel[*].scenario = "URBAN_MACROCELL"
**.ue[55].cellularNic.channelModel[*].scenario = "URBAN_MACROCELL"
**.ue[56].cellularNic.channelModel[*].scenario = "URBAN_MACROCELL"
**.ue[57].cellularNic.channelModel[*].scenario = "URBAN_MACROCELL"
**.ue[58].cellularNic.channelModel[*].scenario = "URBAN_MACROCELL"
**.ue[59].cellularNic.channelModel[*].scenario = "URBAN_MACROCELL"
**.ue[60].cellularNic.channelModel[*].scenario = "URBAN_MACROCELL"
**.ue[61].cellularNic.channelModel[*].scenario = "URBAN_MACROCELL"
**.ue[62].cellularNic.channelModel[*].scenario = "URBAN_MACROCELL"
**.ue[63].cellularNic.channelModel[*].scenario = "URBAN_MACROCELL"
**.ue[64].cellularNic.channelModel[*].scenario = "URBAN_MACROCELL"
**.ue[65].cellularNic.channelModel[*].scenario = "URBAN_MACROCELL"
**.ue[66].cellularNic.channelModel[*].scenario = "URBAN_MACROCELL"
**.ue[67].cellularNic.channelModel[*].scenario = "URBAN_MACROCELL"
**.ue[68].cellularNic.channelModel[*].scenario = "URBAN_MACROCELL"
**.ue[69].cellularNic.channelModel[*].scenario = "URBAN_MICROCELL"
**.ue[70].cellularNic.channelModel[*].scenario = "URBAN_MICROCELL"
**.ue[71].cellularNic.channelModel[*].scenario = "URBAN_MICROCELL"
**.ue[72].cellularNic.channelModel[*].scenario = "URBAN_MICROCELL"
**.ue[73].cellularNic.channelModel[*].scenario = "URBAN_MICROCELL"
**.ue[74].cellularNic.channelModel[*].scenario = "URBAN_MICROCELL"
**.ue[75].cellularNic.channelModel[*].scenario = "URBAN_MICROCELL"
**.ue[76].cellularNic.channelModel[*].scenario = "URBAN_MICROCELL"
**.ue[77].cellularNic.channelModel[*].scenario = "URBAN_MICROCELL"
**.ue[78].cellularNic.channelModel[*].scenario = "URBAN_MICROCELL"
**.ue[79].cellularNic.channelModel[*].scenario = "URBAN_MICROCELL"
**.ue[80].cellularNic.channelModel[*].scenario = "URBAN_MICROCELL"
**.ue[81].cellularNic.channelModel[*].scenario = "URBAN_MICROCELL"
**.ue[82].cellularNic.channelModel[*].scenario = "URBAN_MICROCELL"
**.ue[83].cellularNic.channelModel[*].scenario = "URBAN_MICROCELL"
**.ue[84].cellularNic.channelModel[*].scenario = "URBAN_MICROCELL"
**.ue[85].cellularNic.channelModel[*].scenario = "URBAN_MICROCELL"
**.ue[86].cellularNic.channelModel[*].scenario = "URBAN_MICROCELL"
**.ue[87].cellularNic.channelModel[*].scenario = "URBAN_MICROCELL"
**.ue[88].cellularNic.channelModel[*].scenario = "URBAN_MICROCELL"
**.ue[89].cellularNic.channelModel[*].scenario = "URBAN_MICROCELL"
**.ue[90].cellularNic.channelModel[*].scenario = "URBAN_MICROCELL"
**.ue[91].cellularNic.channelModel[*].scenario = "URBAN_MICROCELL"
**.ue[92].cellularNic.channelModel[*].scenario = "URBAN_MICROCELL"
**.ue[93].cellularNic.channelModel[*].scenario = "URBAN_MICROCELL"
**.ue[94].cellularNic.channelModel[*].scenario = "URBAN_MICROCELL"
**.ue[95].cellularNic.channelModel[*].scenario = "URBAN_MICROCELL"
**.ue[96].cellularNic.channelModel[*].scenario = "URBAN_MICROCELL"
**.ue[97].cellularNic.channelModel[*].scenario = "URBAN_MICROCELL"
**.ue[98].cellularNic.channelModel[*].scenario = "URBAN_MICROCELL"
**.ue[99].cellularNic.channelModel[*].scenario = "URBAN_MICROCELL"
**.ue[100].cellularNic.channelModel[*].scenario = "URBAN_MICROCELL"
**.ue[101].cellularNic.channelModel[*].scenario = "URBAN_MICROCELL"
**.ue[102].cellularNic.channelModel[*].scenario = "URBAN_MICROCELL"
**.ue[103].cellularNic.channelModel[*].scenario = "URBAN_MICROCELL"
**.ue[104].cellularNic.channelModel[*].scenario = "URBAN_MICROCELL"
**.ue[105].cellularNic.channelModel[*].scenario = "URBAN_MICROCELL"
**.ue[106].cellularNic.channelModel[*].scenario = "URBAN_MICROCELL"
**.ue[107].cellularNic.channelModel[*].scenario = "URBAN_MICROCELL"
**.ue[108].cellularNic.channelModel[*].scenario = "URBAN_MICROCELL"
**.ue[109].cellularNic.channelModel[*].scenario = "URBAN_MICROCELL"
**.ue[110].cellularNic.channelModel[*].scenario = "URBAN_MICROCELL"
**.ue[111].cellularNic.channelModel[*].scenario = "URBAN_MICROCELL"
**.ue[112].cellularNic.channelModel[*].scenario = "URBAN_MICROCELL"
**.ue[113].cellularNic.channelModel[*].scenario = "URBAN_MICROCELL"
**.ue[114].cellularNic.channelModel[*].scenario = "URBAN_MICROCELL"
**.ue[115].cellularNic.channelModel[*].scenario = "URBAN_MICROCELL"
**.ue[116].cellularNic.channelModel[*].scenario = "URBAN_MICROCELL"
**.ue[117].cellularNic.channelModel[*].scenario = "URBAN_MICROCELL"
**.ue[118].cellularNic.channelModel[*].scenario = "URBAN_MICROCELL"
**.ue[119].cellularNic.channelModel[*].scenario = "URBAN_MICROCELL"
**.ue[120].cellularNic.channelModel[*].scenario = "URBAN_MICROCELL"
**.ue[121].cellularNic.channelModel[*].scenario = "URBAN_MICROCELL"
**.ue[122].cellularNic.channelModel[*].scenario = "URBAN_MICROCELL"
**.ue[123].cellularNic.channelModel[*].scenario = "URBAN_MICROCELL"
**.ue[124].cellularNic.channelModel[*].scenario = "URBAN_MICROCELL"
**.ue[125].cellularNic.channelModel[*].scenario = "URBAN_MICROCELL"
**.ue[126].cellularNic.channelModel[*].scenario = "URBAN_MICROCELL"
**.ue[127].cellularNic.channelModel[*].scenario = "URBAN_MICROCELL"
**.ue[128].cellularNic.channelModel[*].scenario = "URBAN_MICROCELL"
**.ue[129].cellularNic.channelModel[*].scenario = "URBAN_MICROCELL"
**.ue[130].cellularNic.channelModel[*].scenario = "URBAN_MICROCELL"
**.ue[131].cellularNic.channelModel[*].scenario = "URBAN_MICROCELL"
**.ue[132].cellularNic.channelModel[*].scenario = "URBAN_MICROCELL"
**.ue[133].cellularNic.channelModel[*].scenario = "URBAN_MICROCELL"
**.ue[134].cellularNic.channelModel[*].scenario = "URBAN_MICROCELL"
**.ue[135].cellularNic.channelModel[*].scenario = "URBAN_MICROCELL"
**.ue[136].cellularNic.channelModel[*].scenario = "URBAN_MICROCELL"
**.ue[137].cellularNic.channelModel[*].scenario = "URBAN_MICROCELL"
**.ue[138].cellularNic.channelModel[*].scenario = "URBAN_MICROCELL"
**.ue[139].cellularNic.channelModel[*].scenario = "URBAN_MICROCELL"
**.ue[140].cellularNic.channelModel[*].scenario = "URBAN_MICROCELL"
**.ue[141].cellularNic.channelModel[*].scenario = "URBAN_MICROCELL"
**.ue[142].cellularNic.channelModel[*].scenario = "URBAN_MICROCELL"
**.ue[143].cellularNic.channelModel[*].scenario = "URBAN_MICROCELL"
**.ue[144].cellularNic.channelModel[*].scenario = "URBAN_MICROCELL"
**.ue[145].cellularNic.channelModel[*].scenario = "URBAN_MICROCELL"
**.ue[146].cellularNic.channelModel[*].scenario = "URBAN_MICROCELL"
**.ue[147].cellularNic.channelModel[*].scenario = "URBAN_MICROCELL"
**.ue[148].cellularNic.channelModel[*].scenario = "URBAN_MICROCELL"
**.ue[149].cellularNic.channelModel[*].scenario = "URBAN_MICROCELL"
**.ue[150].cellularNic.channelModel[*].scenario = "URBAN_MICROCELL"
**.ue[151].cellularNic.channelModel[*].scenario = "URBAN_MICROCELL"
**.ue[152].cellularNic.channelModel[*].scenario = "URBAN_MICROCELL"
**.ue[153].cellularNic.channelModel[*].scenario = "URBAN_MICROCELL"
**.ue[154].cellularNic.channelModel[*].scenario = "URBAN_MICROCELL"
**.ue[155].cellularNic.channelModel[*].scenario = "URBAN_MICROCELL"
**.ue[156].cellularNic.channelModel[*].scenario = "URBAN_MICROCELL"
**.ue[157].cellularNic.channelModel[*].scenario = "URBAN_MICROCELL"
**.ue[158].cellularNic.channelModel[*].scenario = "URBAN_MICROCELL"
**.ue[159].cellularNic.channelModel[*].scenario = "URBAN_MICROCELL"
**.ue[160].cellularNic.channelModel[*].scenario = "URBAN_MICROCELL"
**.ue[161].cellularNic.channelModel[*].scenario = "URBAN_MICROCELL"
**.ue[162].cellularNic.channelModel[*].scenario = "URBAN_MICROCELL"
**.ue[163].cellularNic.channelModel[*].scenario = "URBAN_MICROCELL"
**.ue[164].cellularNic.channelModel[*].scenario = "URBAN_MICROCELL"
**.ue[165].cellularNic.channelModel[*].scenario = "URBAN_MICROCELL"
**.ue[166].cellularNic.channelModel[*].scenario = "URBAN_MICROCELL"
**.ue[167].cellularNic.channelModel[*].scenario = "URBAN_MICROCELL"
**.ue[168].cellularNic.channelModel[*].scenario = "URBAN_MICROCELL"
**.ue[169].cellularNic.channelModel[*].scenario = "URBAN_MICROCELL"
**.ue[170].cellularNic.channelModel[*].scenario = "URBAN_MICROCELL"
**.ue[171].cellularNic.channelModel[*].scenario = "URBAN_MICROCELL"
**.ue[172].cellularNic.channelModel[*].scenario = "URBAN_MICROCELL"
**.ue[173].cellularNic.channelModel[*].scenario = "URBAN_MICROCELL"
**.ue[174].cellularNic.channelModel[*].scenario = "URBAN_MICROCELL"
**.ue[175].cellularNic.channelModel[*].scenario = "URBAN_MICROCELL"
**.ue[176].cellularNic.channelModel[*].scenario = "URBAN_MICROCELL"
**.ue[177].cellularNic.channelModel[*].scenario = "URBAN_MICROCELL"
**.ue[178].cellularNic.channelModel[*].scenario = "URBAN_MICROCELL"
**.ue[179].cellularNic.channelModel[*].scenario = "URBAN_MICROCELL"
**.ue[180].cellularNic.channelModel[*].scenario = "URBAN_MICROCELL"
**.ue[181].cellularNic.channelModel[*].scenario = "URBAN_MICROCELL"
**.ue[182].cellularNic.channelModel[*].scenario = "URBAN_MICROCELL"
**.ue[183].cellularNic.channelModel[*].scenario = "URBAN_MICROCELL"
**.ue[184].cellularNic.channelModel[*].scenario = "URBAN_MICROCELL"
**.ue[185].cellularNic.channelModel[*].scenario = "URBAN_MICROCELL"
**.ue[186].cellularNic.channelModel[*].scenario = "URBAN_MICROCELL"
**.ue[187].cellularNic.channelModel[*].scenario = "URBAN_MICROCELL"
**.ue[188].cellularNic.channelModel[*].scenario = "URBAN_MICROCELL"
**.ue[189].cellularNic.channelModel[*].scenario = "URBAN_MICROCELL"
**.ue[190].cellularNic.channelModel[*].scenario = "URBAN_MICROCELL"
**.ue[191].cellularNic.channelModel[*].scenario = "URBAN_MICROCELL"
**.ue[192].cellularNic.channelModel[*].scenario = "URBAN_MICROCELL"
**.ue[193].cellularNic.channelModel[*].scenario = "URBAN_MICROCELL"
**.ue[194].cellularNic.channelModel[*].scenario = "URBAN_MICROCELL"
**.ue[195].cellularNic.channelModel[*].scenario = "URBAN_MICROCELL"
**.ue[196].cellularNic.channelModel[*].scenario = "URBAN_MICROCELL"
**.ue[197].cellularNic.channelModel[*].scenario = "URBAN_MICROCELL"
**.ue[198].cellularNic.channelModel[*].scenario = "URBAN_MICROCELL"
**.ue[199].cellularNic.channelModel[*].scenario = "URBAN_MICROCELL"

############### Mobility ###############

# eNodeB
*.eNB.mobility.initialX = 500m
*.eNB.mobility.initialY = 500m
*.eNB.mobility.initialZ = 0m
*.eNB.mobility.initFromDisplayString = false
*.eNB.mobility.constraintAreaMaxX = inf m
*.eNB.mobility.constraintAreaMaxY = inf m
*.eNB.mobility.constraintAreaMaxZ = inf m
*.eNB.mobility.constraintAreaMinX = -inf m
*.eNB.mobility.constraintAreaMinY = -inf m
*.eNB.mobility.constraintAreaMinZ = -inf m

# UEs

*.ue[*].mobilityType = "StationaryMobility"
*.ue[0].mobility.initialX = 419.12325912955396m
*.ue[0].mobility.initialY = 481.2794571150647m
*.ue[0].mobility.initialZ = 0.0m
*.ue[1].mobility.initialX = 469.06595025706173m
*.ue[1].mobility.initialY = 820.3356365480101m
*.ue[1].mobility.initialZ = 0.0m
*.ue[2].mobility.initialX = 293.530793246511m
*.ue[2].mobility.initialY = 810.2160826362119m
*.ue[2].mobility.initialZ = 0.0m
*.ue[3].mobility.initialX = 350.21441324400723m
*.ue[3].mobility.initialY = 377.8164832547805m
*.ue[3].mobility.initialZ = 0.0m
*.ue[4].mobility.initialX = 330.2021532150791m
*.ue[4].mobility.initialY = 205.9400578242844m
*.ue[4].mobility.initialZ = 0.0m
*.ue[5].mobility.initialX = 354.7551309528297m
*.ue[5].mobility.initialY = 241.71270272204328m
*.ue[5].mobility.initialZ = 0.0m
*.ue[6].mobility.initialX = 239.34794250315213m
*.ue[6].mobility.initialY = 189.71575074691077m
*.ue[6].mobility.initialZ = 0.0m
*.ue[7].mobility.initialX = 214.32574161938612m
*.ue[7].mobility.initialY = 195.82339653406126m
*.ue[7].mobility.initialZ = 0.0m
*.ue[8].mobility.initialX = 502.9378011556153m
*.ue[8].mobility.initialY = 216.664214400481m
*.ue[8].mobility.initialZ = 0.0m
*.ue[9].mobility.initialX = 285.47582945404076m
*.ue[9].mobility.initialY = 537.4255435942031m
*.ue[9].mobility.initialZ = 0.0m
*.ue[10].mobility.initialX = 357.4982503703907m
*.ue[10].mobility.initialY = 700.4295829825309m
*.ue[10].mobility.initialZ = 0.0m
*.ue[11].mobility.initialX = 399.09129930496556m
*.ue[11].mobility.initialY = 488.0913037617813m
*.ue[11].mobility.initialZ = 0.0m
*.ue[12].mobility.initialX = 212.61968687855028m
*.ue[12].mobility.initialY = 740.0032776957103m
*.ue[12].mobility.initialZ = 0.0m
*.ue[13].mobility.initialX = 384.72039038344207m
*.ue[13].mobility.initialY = 827.9006204076778m
*.ue[13].mobility.initialZ = 0.0m
*.ue[14].mobility.initialX = 429.21335045470755m
*.ue[14].mobility.initialY = 490.3378217949051m
*.ue[14].mobility.initialZ = 0.0m
*.ue[15].mobility.initialX = 698.2114454316375m
*.ue[15].mobility.initialY = 731.6967146932184m
*.ue[15].mobility.initialZ = 0.0m
*.ue[16].mobility.initialX = 466.2328770863073m
*.ue[16].mobility.initialY = 745.533877570849m
*.ue[16].mobility.initialZ = 0.0m
*.ue[17].mobility.initialX = 327.9553943142772m
*.ue[17].mobility.initialY = 426.0310960625901m
*.ue[17].mobility.initialZ = 0.0m
*.ue[18].mobility.initialX = 483.8774709895227m
*.ue[18].mobility.initialY = 874.2692349498966m
*.ue[18].mobility.initialZ = 0.0m
*.ue[19].mobility.initialX = 178.13169542697784m
*.ue[19].mobility.initialY = 528.1417987185607m
*.ue[19].mobility.initialZ = 0.0m
*.ue[20].mobility.initialX = 168.49350831085616m
*.ue[20].mobility.initialY = 511.51394734023665m
*.ue[20].mobility.initialZ = 0.0m
*.ue[21].mobility.initialX = 640.6441902143645m
*.ue[21].mobility.initialY = 548.0894710431784m
*.ue[21].mobility.initialZ = 0.0m
*.ue[22].mobility.initialX = 375.35998676381826m
*.ue[22].mobility.initialY = 276.790656025533m
*.ue[22].mobility.initialZ = 0.0m
*.ue[23].mobility.initialX = 485.62447019889004m
*.ue[23].mobility.initialY = 647.9480337670358m
*.ue[23].mobility.initialZ = 0.0m
*.ue[24].mobility.initialX = 726.58861348123m
*.ue[24].mobility.initialY = 417.16812952888796m
*.ue[24].mobility.initialZ = 0.0m
*.ue[25].mobility.initialX = 679.9957066279144m
*.ue[25].mobility.initialY = 522.6378982345238m
*.ue[25].mobility.initialZ = 0.0m
*.ue[26].mobility.initialX = 573.07047193302m
*.ue[26].mobility.initialY = 894.5805206770444m
*.ue[26].mobility.initialZ = 0.0m
*.ue[27].mobility.initialX = 733.6133204151517m
*.ue[27].mobility.initialY = 329.3319502672055m
*.ue[27].mobility.initialZ = 0.0m
*.ue[28].mobility.initialX = 409.93456706868994m
*.ue[28].mobility.initialY = 862.9678965190283m
*.ue[28].mobility.initialZ = 0.0m
*.ue[29].mobility.initialX = 718.4586829119158m
*.ue[29].mobility.initialY = 154.02888157394278m
*.ue[29].mobility.initialZ = 0.0m
*.ue[30].mobility.initialX = 602.7168579631779m
*.ue[30].mobility.initialY = 458.87711314026075m
*.ue[30].mobility.initialZ = 0.0m
*.ue[31].mobility.initialX = 603.3140888233999m
*.ue[31].mobility.initialY = 449.095335524456m
*.ue[31].mobility.initialZ = 0.0m
*.ue[32].mobility.initialX = 427.87870915481585m
*.ue[32].mobility.initialY = 771.0909448915957m
*.ue[32].mobility.initialZ = 0.0m