#Function: ilp_sliced_ini
#Parameters:
#   filename: ../Network_CCOpMv/_5G/simulations/disaster_percentage_0/micro_power_30/chosen_seed_7/ilp_single_sliced_5.ini
#   seed: 7
#   size_y: 4000
#   size_x: 4000
#   size_sector: 400
#   n_macros: 1
#   min_sinr: 5
#   repetitions: 1
#   multi_carriers: False
#   slice_time: 1
#   is_micro: True
#   p_size: 1428
#   app: video
#   target_f: 10
#   extra_config_name: video
#   result_dir: Solutions/disaster_percentage_0/micro_power_30/chosen_seed_7
#   mode: single
#   network_name: ILPSingleNet5
#   net_dir: _5G/networks/disaster_percentage_0/micro_power_30/chosen_seed_7
#   cmdenv_config: True
#   micro_power: 30
#   xml_filename: ilp_move_users-7.sna
#   num_bands: [100]
#Extra = Using 1 macros with 60 ues each. Slicing 10s in 10 different simulations. Using microcells.
[General]
sim-time-limit = 10s

############### Statistics ###############
output-scalar-file = ${resultdir}/${configname}/${repetition}.sca
output-vector-file = ${resultdir}/${configname}/${repetition}.vec
**.vector-recording = false
eventlog-file = ${resultdir}/${configname}/${repetition}.elog
seed-set = ${repetition}

[Config ilp_single_sliced_5_video]
network = _5G.networks.disaster_percentage_0.micro_power_30.chosen_seed_7.ILPSingleNet5
sim-time-limit = 1s
repeat = 1
seed-set = ${repetition}
num-rngs = 2
seed-1-mt = 7

############### Outputs ###############
**.eNB*.cellularNic.channelModel[*].idRcvdSinr:vector.vector-recording = true
**.eNB*.cellularNic.channelModel[*].rcvdSinr:vector.vector-recording = true
**.app[*].throughput:vector.vector-recording = true
**.app[*].endToEndDelay:vector.vector-recording = true
output-scalar-file = ${resultdir}/ilp_single_sliced_5_video/5-${RBs}-${repetition}-${Slice}.sca
output-vector-file = ${resultdir}/ilp_single_sliced_5_video/5-${RBs}-${repetition}-${Slice}.vec
**.vector-recording = false
eventlog-file = ${resultdir}/ilp_single_sliced_5_video/5-${RBs}-${repetition}-${Slice}.elog

############### Cmdenv ###############
cmdenv-performance-display = false
cmdenv-redirect-output = true
cmdenv-output-file = ${resultdir}/ilp_single_sliced_5_video-cmdout/5-${RBs}-${repetition}-${Slice}.out

############### Snapshots ###############
snapshot-file = ../../../Functions/ilp_single_sliced_5_video-RBs_${RBs}-Slice_${Slice}-5-${repetition}.sna
**.snapshotter.snapshot = false
**.snapshotter.delay = 1.0

############### Transmission Power ###############
**.ueTxPower = 24
**.eNodeBTxPower = 46
**.microTxPower = 30
**.cellularNic.phy.txDirection = "OMNI"

############### Channel Control ###############
**.numComponentCarriers = 1
*.carrierAggregation.componentCarrier[0].carrierFrequency = 0.7GHz

############### Channel Model ###############
**.cellularNic.LteChannelModelType = "MoreInfoChannelModel"
**.cellularNic.channelModel[*].building_height = 20
**.cellularNic.channelModel[*].nodeb_height = 18
**.cellularNic.channelModel[*].ue_height = 1.5
**.cellularNic.channelModel[*].street_wide = 20
**.cellularNic.channelModel[*].fading_type = "JAKES"
**.cellularNic.channelModel[*].extCell_interference = false
**.cellularNic.channelModel[*].antennGainEnB = 18
**.cellularNic.channelModel[*].antennGainMicro = 5
**.cellularNic.channelModel[*].antennaGainUe = -1
**.cellularNic.channelModel[*].bs_noise_figure = 9
**.cellularNic.channelModel[*].cable_loss = 2
**.cellularNic.channelModel[*].componentCarrierIndex = 0
**.cellularNic.channelModel[*].correlation_distance = 50
**.cellularNic.channelModel[*].d2d_interference = true
**.cellularNic.channelModel[*].delay_rms = 363e-9
**.cellularNic.channelModel[*].downlink_interference = false
**.cellularNic.channelModel[*].dynamic_los = false
**.cellularNic.channelModel[*].enable_extCell_los = true
**.cellularNic.channelModel[*].fading = true
**.cellularNic.channelModel[*].fading_paths = 6
**.cellularNic.channelModel[*].fixed_los = false
**.cellularNic.channelModel[*].harqReduction = 0.2
**.cellularNic.channelModel[*].inside_building = false
**.cellularNic.channelModel[*].lambdaMaxTh = 0.2
**.cellularNic.channelModel[*].lambdaMinTh = 0.02
**.cellularNic.channelModel[*].lambdaRatioTh = 20
**.cellularNic.channelModel[*].rsrqScale = 1.0
**.cellularNic.channelModel[*].rsrqShift = 22
**.cellularNic.channelModel[*].shadowing = true
**.cellularNic.channelModel[*].targetBler = 0.01
**.cellularNic.channelModel[*].thermalNoise = -104.5
**.cellularNic.channelModel[*].tolerateMaxDistViolation = true
**.cellularNic.channelModel[*].ue_noise_figure = 7
**.cellularNic.channelModel[*].uplink_interference = false
**.cellularNic.channelModel[*].useRsrqFromLog = false
**.cellularNic.channelModel[*].useTorus = false
**.cellularNic.channelModel[*].num_slice = ${Slice= 0, 1, 2, 3, 4, 5, 6, 7, 8, 9}
**.cellularNic.channelModel[*].num_enbs = ${NumEnbs= 1, 3, 3, 3, 3, 3, 3, 3, 3, 3 ! Slice}

############### Resource Blocks ###############
**.numBands = ${RBs= 100}

############### eNBs ###############
**.eNB0.cellInfo.microCell = true
**.eNB1.cellInfo.microCell = true
**.eNB2.cellInfo.microCell = true

############### UEs ###############
**.numUe = 60

# Conecting UEs to eNodeB
**.ue[0].macCellId = ${1, 2, 2, 3, 3, 3, 2, 2, 3, 2 ! Slice}
**.ue[0].masterId = ${1, 2, 2, 3, 3, 3, 2, 2, 3, 2 ! Slice}
**.ue[1].macCellId = ${1, 2, 3, 3, 3, 3, 1, 2, 1, 1 ! Slice}
**.ue[1].masterId = ${1, 2, 3, 3, 3, 3, 1, 2, 1, 1 ! Slice}
**.ue[2].macCellId = ${1, 2, 2, 1, 2, 1, 2, 1, 2, 1 ! Slice}
**.ue[2].masterId = ${1, 2, 2, 1, 2, 1, 2, 1, 2, 1 ! Slice}
**.ue[3].macCellId = ${1, 1, 3, 3, 2, 3, 1, 2, 2, 1 ! Slice}
**.ue[3].masterId = ${1, 1, 3, 3, 2, 3, 1, 2, 2, 1 ! Slice}
**.ue[4].macCellId = ${1, 1, 1, 3, 2, 2, 1, 1, 3, 2 ! Slice}
**.ue[4].masterId = ${1, 1, 1, 3, 2, 2, 1, 1, 3, 2 ! Slice}
**.ue[5].macCellId = ${1, 3, 1, 1, 3, 2, 2, 3, 1, 3 ! Slice}
**.ue[5].masterId = ${1, 3, 1, 1, 3, 2, 2, 3, 1, 3 ! Slice}
**.ue[6].macCellId = ${1, 2, 2, 1, 3, 1, 1, 3, 2, 2 ! Slice}
**.ue[6].masterId = ${1, 2, 2, 1, 3, 1, 1, 3, 2, 2 ! Slice}
**.ue[7].macCellId = ${1, 2, 2, 2, 3, 2, 1, 2, 2, 3 ! Slice}
**.ue[7].masterId = ${1, 2, 2, 2, 3, 2, 1, 2, 2, 3 ! Slice}
**.ue[8].macCellId = ${1, 3, 1, 1, 3, 1, 2, 3, 2, 2 ! Slice}
**.ue[8].masterId = ${1, 3, 1, 1, 3, 1, 2, 3, 2, 2 ! Slice}
**.ue[9].macCellId = ${1, 1, 1, 3, 2, 1, 1, 1, 3, 2 ! Slice}
**.ue[9].masterId = ${1, 1, 1, 3, 2, 1, 1, 1, 3, 2 ! Slice}
**.ue[10].macCellId = ${1, 2, 1, 1, 2, 2, 1, 2, 1, 1 ! Slice}
**.ue[10].masterId = ${1, 2, 1, 1, 2, 2, 1, 2, 1, 1 ! Slice}
**.ue[11].macCellId = ${1, 1, 2, 1, 2, 2, 3, 2, 3, 3 ! Slice}
**.ue[11].masterId = ${1, 1, 2, 1, 2, 2, 3, 2, 3, 3 ! Slice}
**.ue[12].macCellId = ${1, 1, 3, 1, 1, 3, 2, 2, 2, 1 ! Slice}
**.ue[12].masterId = ${1, 1, 3, 1, 1, 3, 2, 2, 2, 1 ! Slice}
**.ue[13].macCellId = ${1, 2, 1, 2, 3, 3, 3, 2, 1, 2 ! Slice}
**.ue[13].masterId = ${1, 2, 1, 2, 3, 3, 3, 2, 1, 2 ! Slice}
**.ue[14].macCellId = ${1, 2, 3, 1, 2, 3, 1, 2, 2, 3 ! Slice}
**.ue[14].masterId = ${1, 2, 3, 1, 2, 3, 1, 2, 2, 3 ! Slice}
**.ue[15].macCellId = ${1, 3, 3, 2, 2, 2, 2, 2, 2, 2 ! Slice}
**.ue[15].masterId = ${1, 3, 3, 2, 2, 2, 2, 2, 2, 2 ! Slice}
**.ue[16].macCellId = ${1, 1, 3, 3, 2, 2, 3, 1, 2, 2 ! Slice}
**.ue[16].masterId = ${1, 1, 3, 3, 2, 2, 3, 1, 2, 2 ! Slice}
**.ue[17].macCellId = ${1, 2, 2, 1, 2, 2, 3, 3, 2, 3 ! Slice}
**.ue[17].masterId = ${1, 2, 2, 1, 2, 2, 3, 3, 2, 3 ! Slice}
**.ue[18].macCellId = ${1, 1, 2, 2, 1, 2, 2, 1, 2, 1 ! Slice}
**.ue[18].masterId = ${1, 1, 2, 2, 1, 2, 2, 1, 2, 1 ! Slice}
**.ue[19].macCellId = ${1, 3, 1, 3, 2, 2, 3, 3, 1, 3 ! Slice}
**.ue[19].masterId = ${1, 3, 1, 3, 2, 2, 3, 3, 1, 3 ! Slice}
**.ue[20].macCellId = ${1, 2, 1, 2, 2, 3, 3, 2, 3, 3 ! Slice}
**.ue[20].masterId = ${1, 2, 1, 2, 2, 3, 3, 2, 3, 3 ! Slice}
**.ue[21].macCellId = ${1, 2, 2, 1, 2, 1, 1, 2, 1, 2 ! Slice}
**.ue[21].masterId = ${1, 2, 2, 1, 2, 1, 1, 2, 1, 2 ! Slice}
**.ue[22].macCellId = ${1, 2, 3, 3, 2, 3, 2, 1, 1, 1 ! Slice}
**.ue[22].masterId = ${1, 2, 3, 3, 2, 3, 2, 1, 1, 1 ! Slice}
**.ue[23].macCellId = ${1, 2, 1, 1, 2, 1, 1, 1, 3, 3 ! Slice}
**.ue[23].masterId = ${1, 2, 1, 1, 2, 1, 1, 1, 3, 3 ! Slice}
**.ue[24].macCellId = ${1, 3, 3, 3, 2, 2, 1, 3, 1, 1 ! Slice}
**.ue[24].masterId = ${1, 3, 3, 3, 2, 2, 1, 3, 1, 1 ! Slice}
**.ue[25].macCellId = ${1, 2, 1, 2, 2, 3, 3, 2, 1, 2 ! Slice}
**.ue[25].masterId = ${1, 2, 1, 2, 2, 3, 3, 2, 1, 2 ! Slice}
**.ue[26].macCellId = ${1, 2, 3, 3, 2, 2, 1, 2, 3, 1 ! Slice}
**.ue[26].masterId = ${1, 2, 3, 3, 2, 2, 1, 2, 3, 1 ! Slice}
**.ue[27].macCellId = ${1, 3, 3, 1, 2, 2, 3, 1, 3, 3 ! Slice}
**.ue[27].masterId = ${1, 3, 3, 1, 2, 2, 3, 1, 3, 3 ! Slice}
**.ue[28].macCellId = ${1, 3, 1, 3, 1, 1, 3, 1, 1, 3 ! Slice}
**.ue[28].masterId = ${1, 3, 1, 3, 1, 1, 3, 1, 1, 3 ! Slice}
**.ue[29].macCellId = ${1, 3, 2, 3, 2, 2, 2, 2, 2, 2 ! Slice}
**.ue[29].masterId = ${1, 3, 2, 3, 2, 2, 2, 2, 2, 2 ! Slice}
**.ue[30].macCellId = ${1, 3, 1, 1, 2, 2, 2, 2, 1, 3 ! Slice}
**.ue[30].masterId = ${1, 3, 1, 1, 2, 2, 2, 2, 1, 3 ! Slice}
**.ue[31].macCellId = ${1, 2, 1, 1, 2, 3, 3, 3, 3, 3 ! Slice}
**.ue[31].masterId = ${1, 2, 1, 1, 2, 3, 3, 3, 3, 3 ! Slice}
**.ue[32].macCellId = ${1, 2, 2, 3, 3, 1, 3, 2, 2, 3 ! Slice}
**.ue[32].masterId = ${1, 2, 2, 3, 3, 1, 3, 2, 2, 3 ! Slice}
**.ue[33].macCellId = ${1, 2, 2, 3, 1, 1, 2, 2, 3, 2 ! Slice}
**.ue[33].masterId = ${1, 2, 2, 3, 1, 1, 2, 2, 3, 2 ! Slice}
**.ue[34].macCellId = ${1, 1, 2, 1, 2, 1, 1, 2, 1, 1 ! Slice}
**.ue[34].masterId = ${1, 1, 2, 1, 2, 1, 1, 2, 1, 1 ! Slice}
**.ue[35].macCellId = ${1, 1, 2, 1, 2, 2, 1, 1, 1, 1 ! Slice}
**.ue[35].masterId = ${1, 1, 2, 1, 2, 2, 1, 1, 1, 1 ! Slice}
**.ue[36].macCellId = ${1, 3, 3, 1, 1, 3, 2, 2, 2, 2 ! Slice}
**.ue[36].masterId = ${1, 3, 3, 1, 1, 3, 2, 2, 2, 2 ! Slice}
**.ue[37].macCellId = ${1, 3, 2, 3, 3, 1, 2, 2, 1, 3 ! Slice}
**.ue[37].masterId = ${1, 3, 2, 3, 3, 1, 2, 2, 1, 3 ! Slice}
**.ue[38].macCellId = ${1, 3, 3, 2, 2, 3, 3, 2, 1, 1 ! Slice}
**.ue[38].masterId = ${1, 3, 3, 2, 2, 3, 3, 2, 1, 1 ! Slice}
**.ue[39].macCellId = ${1, 2, 2, 1, 1, 3, 2, 3, 1, 1 ! Slice}
**.ue[39].masterId = ${1, 2, 2, 1, 1, 3, 2, 3, 1, 1 ! Slice}
**.ue[40].macCellId = ${1, 2, 1, 1, 2, 3, 3, 3, 3, 3 ! Slice}
**.ue[40].masterId = ${1, 2, 1, 1, 2, 3, 3, 3, 3, 3 ! Slice}
**.ue[41].macCellId = ${1, 1, 2, 2, 1, 2, 1, 1, 1, 1 ! Slice}
**.ue[41].masterId = ${1, 1, 2, 2, 1, 2, 1, 1, 1, 1 ! Slice}
**.ue[42].macCellId = ${1, 2, 2, 1, 2, 2, 1, 2, 1, 2 ! Slice}
**.ue[42].masterId = ${1, 2, 2, 1, 2, 2, 1, 2, 1, 2 ! Slice}
**.ue[43].macCellId = ${1, 1, 2, 3, 2, 2, 1, 3, 3, 3 ! Slice}
**.ue[43].masterId = ${1, 1, 2, 3, 2, 2, 1, 3, 3, 3 ! Slice}
**.ue[44].macCellId = ${1, 2, 1, 1, 2, 1, 1, 1, 2, 1 ! Slice}
**.ue[44].masterId = ${1, 2, 1, 1, 2, 1, 1, 1, 2, 1 ! Slice}
**.ue[45].macCellId = ${1, 1, 3, 1, 1, 3, 1, 3, 1, 1 ! Slice}
**.ue[45].masterId = ${1, 1, 3, 1, 1, 3, 1, 3, 1, 1 ! Slice}
**.ue[46].macCellId = ${1, 1, 2, 1, 2, 1, 2, 2, 3, 3 ! Slice}
**.ue[46].masterId = ${1, 1, 2, 1, 2, 1, 2, 2, 3, 3 ! Slice}
**.ue[47].macCellId = ${1, 2, 2, 2, 3, 1, 1, 3, 3, 2 ! Slice}
**.ue[47].masterId = ${1, 2, 2, 2, 3, 1, 1, 3, 3, 2 ! Slice}
**.ue[48].macCellId = ${1, 3, 2, 2, 2, 2, 2, 2, 2, 2 ! Slice}
**.ue[48].masterId = ${1, 3, 2, 2, 2, 2, 2, 2, 2, 2 ! Slice}
**.ue[49].macCellId = ${1, 2, 2, 3, 1, 3, 3, 2, 2, 2 ! Slice}
**.ue[49].masterId = ${1, 2, 2, 3, 1, 3, 3, 2, 2, 2 ! Slice}
**.ue[50].macCellId = ${1, 2, 1, 1, 2, 1, 1, 2, 1, 2 ! Slice}
**.ue[50].masterId = ${1, 2, 1, 1, 2, 1, 1, 2, 1, 2 ! Slice}
**.ue[51].macCellId = ${1, 1, 2, 2, 1, 2, 1, 1, 2, 1 ! Slice}
**.ue[51].masterId = ${1, 1, 2, 2, 1, 2, 1, 1, 2, 1 ! Slice}
**.ue[52].macCellId = ${1, 2, 3, 3, 2, 1, 1, 2, 1, 3 ! Slice}
**.ue[52].masterId = ${1, 2, 3, 3, 2, 1, 1, 2, 1, 3 ! Slice}
**.ue[53].macCellId = ${1, 2, 3, 3, 2, 2, 1, 2, 2, 3 ! Slice}
**.ue[53].masterId = ${1, 2, 3, 3, 2, 2, 1, 2, 2, 3 ! Slice}
**.ue[54].macCellId = ${1, 3, 3, 2, 2, 2, 1, 3, 3, 1 ! Slice}
**.ue[54].masterId = ${1, 3, 3, 2, 2, 2, 1, 3, 3, 1 ! Slice}
**.ue[55].macCellId = ${1, 1, 3, 2, 1, 1, 2, 3, 1, 2 ! Slice}
**.ue[55].masterId = ${1, 1, 3, 2, 1, 1, 2, 3, 1, 2 ! Slice}
**.ue[56].macCellId = ${1, 2, 2, 1, 3, 2, 1, 3, 2, 2 ! Slice}
**.ue[56].masterId = ${1, 2, 2, 1, 3, 2, 1, 3, 2, 2 ! Slice}
**.ue[57].macCellId = ${1, 3, 3, 2, 1, 2, 3, 1, 2, 2 ! Slice}
**.ue[57].masterId = ${1, 3, 3, 2, 1, 2, 3, 1, 2, 2 ! Slice}
**.ue[58].macCellId = ${1, 2, 2, 1, 1, 2, 2, 1, 2, 1 ! Slice}
**.ue[58].masterId = ${1, 2, 2, 1, 1, 2, 2, 1, 2, 1 ! Slice}
**.ue[59].macCellId = ${1, 1, 2, 3, 2, 3, 3, 3, 3, 3 ! Slice}
**.ue[59].masterId = ${1, 1, 2, 3, 2, 3, 3, 3, 3, 3 ! Slice}

# Scheduler
**.schedulingDisciplineUl = ${sched= "MAXCI"}
**.schedulingDisciplineDl = ${sched}

############### Scenario ###############

# eNodeBs
**.eNB0.cellularNic.channelModel[*].scenario = "URBAN_MICROCELL"
**.eNB1.cellularNic.channelModel[*].scenario = "URBAN_MICROCELL"
**.eNB2.cellularNic.channelModel[*].scenario = "URBAN_MICROCELL"

# UEs
**.ue[0].cellularNic.channelModel[*].scenario = "URBAN_MICROCELL"
**.ue[1].cellularNic.channelModel[*].scenario = "URBAN_MICROCELL"
**.ue[2].cellularNic.channelModel[*].scenario = "URBAN_MICROCELL"
**.ue[3].cellularNic.channelModel[*].scenario = "URBAN_MICROCELL"
**.ue[4].cellularNic.channelModel[*].scenario = "URBAN_MICROCELL"
**.ue[5].cellularNic.channelModel[*].scenario = "URBAN_MICROCELL"
**.ue[6].cellularNic.channelModel[*].scenario = "URBAN_MICROCELL"
**.ue[7].cellularNic.channelModel[*].scenario = "URBAN_MICROCELL"
**.ue[8].cellularNic.channelModel[*].scenario = "URBAN_MICROCELL"
**.ue[9].cellularNic.channelModel[*].scenario = "URBAN_MICROCELL"
**.ue[10].cellularNic.channelModel[*].scenario = "URBAN_MICROCELL"
**.ue[11].cellularNic.channelModel[*].scenario = "URBAN_MICROCELL"
**.ue[12].cellularNic.channelModel[*].scenario = "URBAN_MICROCELL"
**.ue[13].cellularNic.channelModel[*].scenario = "URBAN_MICROCELL"
**.ue[14].cellularNic.channelModel[*].scenario = "URBAN_MICROCELL"
**.ue[15].cellularNic.channelModel[*].scenario = "URBAN_MICROCELL"
**.ue[16].cellularNic.channelModel[*].scenario = "URBAN_MICROCELL"
**.ue[17].cellularNic.channelModel[*].scenario = "URBAN_MICROCELL"
**.ue[18].cellularNic.channelModel[*].scenario = "URBAN_MICROCELL"
**.ue[19].cellularNic.channelModel[*].scenario = "URBAN_MICROCELL"
**.ue[20].cellularNic.channelModel[*].scenario = "URBAN_MICROCELL"
**.ue[21].cellularNic.channelModel[*].scenario = "URBAN_MICROCELL"
**.ue[22].cellularNic.channelModel[*].scenario = "URBAN_MICROCELL"
**.ue[23].cellularNic.channelModel[*].scenario = "URBAN_MICROCELL"
**.ue[24].cellularNic.channelModel[*].scenario = "URBAN_MICROCELL"
**.ue[25].cellularNic.channelModel[*].scenario = "URBAN_MICROCELL"
**.ue[26].cellularNic.channelModel[*].scenario = "URBAN_MICROCELL"
**.ue[27].cellularNic.channelModel[*].scenario = "URBAN_MICROCELL"
**.ue[28].cellularNic.channelModel[*].scenario = "URBAN_MICROCELL"
**.ue[29].cellularNic.channelModel[*].scenario = "URBAN_MICROCELL"
**.ue[30].cellularNic.channelModel[*].scenario = "URBAN_MICROCELL"
**.ue[31].cellularNic.channelModel[*].scenario = "URBAN_MICROCELL"
**.ue[32].cellularNic.channelModel[*].scenario = "URBAN_MICROCELL"
**.ue[33].cellularNic.channelModel[*].scenario = "URBAN_MICROCELL"
**.ue[34].cellularNic.channelModel[*].scenario = "URBAN_MICROCELL"
**.ue[35].cellularNic.channelModel[*].scenario = "URBAN_MICROCELL"
**.ue[36].cellularNic.channelModel[*].scenario = "URBAN_MICROCELL"
**.ue[37].cellularNic.channelModel[*].scenario = "URBAN_MICROCELL"
**.ue[38].cellularNic.channelModel[*].scenario = "URBAN_MICROCELL"
**.ue[39].cellularNic.channelModel[*].scenario = "URBAN_MICROCELL"
**.ue[40].cellularNic.channelModel[*].scenario = "URBAN_MICROCELL"
**.ue[41].cellularNic.channelModel[*].scenario = "URBAN_MICROCELL"
**.ue[42].cellularNic.channelModel[*].scenario = "URBAN_MICROCELL"
**.ue[43].cellularNic.channelModel[*].scenario = "URBAN_MICROCELL"
**.ue[44].cellularNic.channelModel[*].scenario = "URBAN_MICROCELL"
**.ue[45].cellularNic.channelModel[*].scenario = "URBAN_MICROCELL"
**.ue[46].cellularNic.channelModel[*].scenario = "URBAN_MICROCELL"
**.ue[47].cellularNic.channelModel[*].scenario = "URBAN_MICROCELL"
**.ue[48].cellularNic.channelModel[*].scenario = "URBAN_MICROCELL"
**.ue[49].cellularNic.channelModel[*].scenario = "URBAN_MICROCELL"
**.ue[50].cellularNic.channelModel[*].scenario = "URBAN_MICROCELL"
**.ue[51].cellularNic.channelModel[*].scenario = "URBAN_MICROCELL"
**.ue[52].cellularNic.channelModel[*].scenario = "URBAN_MICROCELL"
**.ue[53].cellularNic.channelModel[*].scenario = "URBAN_MICROCELL"
**.ue[54].cellularNic.channelModel[*].scenario = "URBAN_MICROCELL"
**.ue[55].cellularNic.channelModel[*].scenario = "URBAN_MICROCELL"
**.ue[56].cellularNic.channelModel[*].scenario = "URBAN_MICROCELL"
**.ue[57].cellularNic.channelModel[*].scenario = "URBAN_MICROCELL"
**.ue[58].cellularNic.channelModel[*].scenario = "URBAN_MICROCELL"
**.ue[59].cellularNic.channelModel[*].scenario = "URBAN_MICROCELL"

############### Mobility ###############

# eNodeB
*.eNB0.mobility.initialX = 1000.0m
*.eNB0.mobility.initialY = 1000.0m
*.eNB0.mobility.initialZ = 0m
*.eNB0.mobility.initFromDisplayString = false
*.eNB1.mobility.initialX = 3000.0m
*.eNB1.mobility.initialY = 1800.0m
*.eNB1.mobility.initialZ = 0m
*.eNB1.mobility.initFromDisplayString = false
*.eNB2.mobility.initialX = 1800.0m
*.eNB2.mobility.initialY = 3000.0m
*.eNB2.mobility.initialZ = 0m
*.eNB2.mobility.initFromDisplayString = false
*.eNB*.mobility.constraintAreaMaxX = 4000 m
*.eNB*.mobility.constraintAreaMaxY = 4000 m
*.eNB*.mobility.constraintAreaMaxZ = inf m
*.eNB*.mobility.constraintAreaMinX = 0 m
*.eNB*.mobility.constraintAreaMinY = 0 m
*.eNB*.mobility.constraintAreaMinZ = -inf m

# UEs

*.ue[*].mobilityType = "LinearMobility"
*.ue[0].mobility.initialX = ${1239.96089048429m, 3390.39m, 3988.77m, 2342.53m, 560.599m, 851.431m, 3158.82m, 2231.61m, 799.274m, 3244.92m ! Slice}
*.ue[0].mobility.initialY = ${601.1813430126249m, 1234.57m, 1591.69m, 2922.91m, 3469.0m, 2590.15m, 688.36m, 1396.9m, 2536.09m, 2072.37m ! Slice}
*.ue[0].mobility.initialZ = ${0m, 0.0m, 0.0m, 0.0m, 0.0m, 0.0m, 0.0m, 0.0m, 0.0m, 0.0m ! Slice}
*.ue[0].mobility.initFromDisplayString = false
*.ue[1].mobility.initialX = ${1120.01214033731m, 3060.94m, 770.35m, 1197.48m, 3096.22m, 2377.39m, 15.4617m, 3806.74m, 184.657m, 1357.14m ! Slice}
*.ue[1].mobility.initialY = ${918.2269703142373m, 1554.0m, 2872.11m, 3531.85m, 3731.92m, 3032.39m, 2212.76m, 834.149m, 611.291m, 857.326m ! Slice}
*.ue[1].mobility.initialZ = ${0m, 0.0m, 0.0m, 0.0m, 0.0m, 0.0m, 0.0m, 0.0m, 0.0m, 0.0m ! Slice}
*.ue[1].mobility.initFromDisplayString = false
*.ue[2].mobility.initialX = ${1175.4073698368738m, 2717.44m, 2019.88m, 1705.93m, 3831.95m, 138.774m, 3298.88m, 594.835m, 2768.03m, 1502.27m ! Slice}
*.ue[2].mobility.initialY = ${1190.1311846137112m, 1188.09m, 1186.27m, 1184.29m, 1182.89m, 1180.49m, 1178.73m, 1176.49m, 1173.65m, 1171.54m ! Slice}
*.ue[2].mobility.initialZ = ${0m, 0.0m, 0.0m, 0.0m, 0.0m, 0.0m, 0.0m, 0.0m, 0.0m, 0.0m ! Slice}
*.ue[2].mobility.initFromDisplayString = false
*.ue[3].mobility.initialX = ${1085.114343046259m, 364.668m, 1002.61m, 2215.55m, 3561.85m, 1976.51m, 1914.56m, 2686.35m, 2424.78m, 625.598m ! Slice}
*.ue[3].mobility.initialY = ${1002.6584903753097m, 94.773m, 2090.79m, 3974.87m, 1924.1m, 2076.96m, 414.507m, 973.469m, 2456.97m, 69.5513m ! Slice}
*.ue[3].mobility.initialZ = ${0m, 0.0m, 0.0m, 0.0m, 0.0m, 0.0m, 0.0m, 0.0m, 0.0m, 0.0m ! Slice}
*.ue[3].mobility.initFromDisplayString = false
*.ue[4].mobility.initialX = ${1106.903710898394m, 20.6408m, 1122.96m, 1809.71m, 3598.69m, 2660.85m, 696.489m, 260.182m, 1687.68m, 3938.38m ! Slice}
*.ue[4].mobility.initialY = ${1003.1924639259253m, 617.964m, 1806.06m, 2671.25m, 2825.36m, 935.072m, 1737.35m, 2142.2m, 3097.81m, 568.317m ! Slice}
*.ue[4].mobility.initialZ = ${0m, 0.0m, 0.0m, 0.0m, 0.0m, 0.0m, 0.0m, 0.0m, 0.0m, 0.0m ! Slice}
*.ue[4].mobility.initFromDisplayString = false
*.ue[5].mobility.initialX = ${1091.057987919969m, 218.44m, 957.849m, 1970.58m, 2757.1m, 3654.54m, 3116.83m, 2186.12m, 617.151m, 747.298m ! Slice}
*.ue[5].mobility.initialY = ${1094.2631690809026m, 3546.19m, 1180.61m, 1874.51m, 3907.01m, 1571.31m, 2001.09m, 3119.34m, 1551.71m, 2989.17m ! Slice}
*.ue[5].mobility.initialZ = ${0m, 0.0m, 0.0m, 0.0m, 0.0m, 0.0m, 0.0m, 0.0m, 0.0m, 0.0m ! Slice}
*.ue[5].mobility.initFromDisplayString = false
*.ue[6].mobility.initialX = ${1300.6844702005305m, 2815.75m, 3072.39m, 2391.18m, 824.336m, 563.19m, 1361.6m, 2784.63m, 3968.58m, 2375.54m ! Slice}
*.ue[6].mobility.initialY = ${1101.6371103196911m, 2392.73m, 1410.22m, 465.199m, 3594.1m, 1682.57m, 603.954m, 3393.04m, 1855.31m, 1859.62m ! Slice}
*.ue[6].mobility.initialZ = ${0m, 0.0m, 0.0m, 0.0m, 0.0m, 0.0m, 0.0m, 0.0m, 0.0m, 0.0m ! Slice}
*.ue[6].mobility.initFromDisplayString = false
*.ue[7].mobility.initialX = ${1409.4992325581272m, 3502.8m, 3646.23m, 2667.24m, 841.058m, 3974.63m, 388.802m, 2807.48m, 3557.9m, 916.922m ! Slice}
*.ue[7].mobility.initialY = ${967.7641310683555m, 390.82m, 641.423m, 1215.74m, 2883.39m, 2871.87m, 630.988m, 792.006m, 1516.58m, 3094.73m ! Slice}
*.ue[7].mobility.initialZ = ${0m, 0.0m, 0.0m, 0.0m, 0.0m, 0.0m, 0.0m, 0.0m, 0.0m, 0.0m ! Slice}
*.ue[7].mobility.initFromDisplayString = false
*.ue[8].mobility.initialX = ${1326.1478824704657m, 1492.83m, 1597.24m, 1619.55m, 1779.41m, 1944.92m, 2011.91m, 2203.33m, 2381.52m, 2551.8m ! Slice}
*.ue[8].mobility.initialY = ${1113.9079575145734m, 2904.91m, 1349.83m, 894.209m, 2543.56m, 1995.41m, 881.355m, 3181.16m, 1223.11m, 2339.34m ! Slice}
*.ue[8].mobility.initialZ = ${0m, 0.0m, 0.0m, 0.0m, 0.0m, 0.0m, 0.0m, 0.0m, 0.0m, 0.0m ! Slice}
*.ue[8].mobility.initFromDisplayString = false
*.ue[9].mobility.initialX = ${1469.2475023379097m, 306.922m, 1376.1m, 3362.32m, 3622.58m, 1912.62m, 621.224m, 996.637m, 2407.05m, 3889.87m ! Slice}
*.ue[9].mobility.initialY = ${1147.7767616801916m, 32.6023m, 1705.66m, 3758.83m, 3291.58m, 1473.78m, 162.325m, 1386.96m, 2912.99m, 3394.35m ! Slice}
*.ue[9].mobility.initialZ = ${0m, 0.0m, 0.0m, 0.0m, 0.0m, 0.0m, 0.0m, 0.0m, 0.0m, 0.0m ! Slice}
*.ue[9].mobility.initFromDisplayString = false
*.ue[10].mobility.initialX = ${1762.6456011001164m, 2200.91m, 1798.46m, 755.245m, 3443.55m, 3327.63m, 32.9766m, 3555.06m, 2325.96m, 1556.46m ! Slice}
*.ue[10].mobility.initialY = ${1102.4886112938414m, 826.022m, 519.539m, 323.991m, 91.3974m, 1.07563m, 259.977m, 529.635m, 690.42m, 956.184m ! Slice}
*.ue[10].mobility.initialZ = ${0m, 0.0m, 0.0m, 0.0m, 0.0m, 0.0m, 0.0m, 0.0m, 0.0m, 0.0m ! Slice}
*.ue[10].mobility.initFromDisplayString = false
*.ue[11].mobility.initialX = ${1760.7291742812413m, 107.717m, 2499.47m, 572.374m, 2962.9m, 2018.14m, 1139.87m, 3545.9m, 1101.43m, 2244.39m ! Slice}
*.ue[11].mobility.initialY = ${1112.9041332614736m, 716.341m, 208.712m, 815.298m, 1573.52m, 2196.72m, 2818.77m, 3409.26m, 3780.29m, 3202.96m ! Slice}
*.ue[11].mobility.initialZ = ${0m, 0.0m, 0.0m, 0.0m, 0.0m, 0.0m, 0.0m, 0.0m, 0.0m, 0.0m ! Slice}
*.ue[11].mobility.initFromDisplayString = false
*.ue[12].mobility.initialX = ${1831.9668625008894m, 1201.27m, 49.1195m, 476.49m, 1464.05m, 2057.71m, 3399.23m, 3316.24m, 2438.21m, 1143.39m ! Slice}
*.ue[12].mobility.initialY = ${1085.3844154321503m, 1040.8m, 3688.73m, 2097.71m, 1283.91m, 2688.62m, 1021.22m, 2524.05m, 2447.32m, 1698.38m ! Slice}
*.ue[12].mobility.initialZ = ${0m, 0.0m, 0.0m, 0.0m, 0.0m, 0.0m, 0.0m, 0.0m, 0.0m, 0.0m ! Slice}
*.ue[12].mobility.initFromDisplayString = false
*.ue[13].mobility.initialX = ${1789.0030918234818m, 3823.32m, 251.862m, 2261.59m, 2596.85m, 154.757m, 2079.26m, 2812.88m, 192.745m, 2766.6m ! Slice}
*.ue[13].mobility.initialY = ${1091.5428017446611m, 202.442m, 1148.2m, 2063.4m, 3121.52m, 3703.25m, 3025.52m, 1995.06m, 892.586m, 365.749m ! Slice}
*.ue[13].mobility.initialZ = ${0m, 0.0m, 0.0m, 0.0m, 0.0m, 0.0m, 0.0m, 0.0m, 0.0m, 0.0m ! Slice}
*.ue[13].mobility.initFromDisplayString = false
*.ue[14].mobility.initialX = ${1795.1780460446366m, 3493.24m, 1981.82m, 1107.04m, 3466.66m, 2098.56m, 1217.22m, 2621.14m, 3447.98m, 2084.43m ! Slice}
*.ue[14].mobility.initialY = ${1067.7049067685973m, 2695.17m, 2721.04m, 268.088m, 2337.11m, 3098.99m, 518.763m, 1239.32m, 2812.01m, 3443.22m ! Slice}
*.ue[14].mobility.initialZ = ${0m, 0.0m, 0.0m, 0.0m, 0.0m, 0.0m, 0.0m, 0.0m, 0.0m, 0.0m ! Slice}
*.ue[14].mobility.initFromDisplayString = false
*.ue[15].mobility.initialX = ${1738.6759475235028m, 1857.44m, 1979.45m, 2232.26m, 2444.55m, 2548.02m, 2731.72m, 2952.32m, 3149.44m, 3484.22m ! Slice}
*.ue[15].mobility.initialY = ${1090.6526958888176m, 3107.47m, 2686.84m, 1995.66m, 2507.67m, 1165.16m, 2156.14m, 1956.09m, 1432.0m, 742.311m ! Slice}
*.ue[15].mobility.initialZ = ${0m, 0.0m, 0.0m, 0.0m, 0.0m, 0.0m, 0.0m, 0.0m, 0.0m, 0.0m ! Slice}
*.ue[15].mobility.initFromDisplayString = false
*.ue[16].mobility.initialX = ${1727.6180393468255m, 473.57m, 1068.2m, 1793.14m, 3234.11m, 2479.35m, 1334.27m, 925.677m, 2420.62m, 3851.84m ! Slice}
*.ue[16].mobility.initialY = ${1128.6481450517028m, 1080.2m, 3186.88m, 3445.32m, 1154.25m, 2333.59m, 3855.6m, 667.081m, 2148.92m, 3324.55m ! Slice}
*.ue[16].mobility.initialZ = ${0m, 0.0m, 0.0m, 0.0m, 0.0m, 0.0m, 0.0m, 0.0m, 0.0m, 0.0m ! Slice}
*.ue[16].mobility.initFromDisplayString = false
*.ue[17].mobility.initialX = ${1790.0342345698066m, 2148.56m, 3943.28m, 766.812m, 3222.65m, 3001.21m, 803.895m, 581.99m, 3055.25m, 1035.44m ! Slice}
*.ue[17].mobility.initialY = ${1066.430611854m, 1353.64m, 1535.42m, 1790.22m, 2103.22m, 2245.2m, 2428.96m, 2531.04m, 2738.52m, 3041.35m ! Slice}
*.ue[17].mobility.initialZ = ${0m, 0.0m, 0.0m, 0.0m, 0.0m, 0.0m, 0.0m, 0.0m, 0.0m, 0.0m ! Slice}
*.ue[17].mobility.initFromDisplayString = false
*.ue[18].mobility.initialX = ${1815.3872968711237m, 1071.04m, 3041.97m, 2925.86m, 951.882m, 3161.31m, 2804.39m, 1061.46m, 3825.33m, 1733.29m ! Slice}
*.ue[18].mobility.initialY = ${1067.43589942499m, 819.227m, 589.642m, 404.107m, 65.1224m, 214.91m, 397.919m, 735.581m, 1095.61m, 1301.4m ! Slice}
*.ue[18].mobility.initialZ = ${0m, 0.0m, 0.0m, 0.0m, 0.0m, 0.0m, 0.0m, 0.0m, 0.0m, 0.0m ! Slice}
*.ue[18].mobility.initFromDisplayString = false
*.ue[19].mobility.initialX = ${1758.5460556477267m, 631.219m, 793.011m, 2593.11m, 3425.67m, 3261.55m, 1763.25m, 1002.47m, 548.6m, 1924.77m ! Slice}
*.ue[19].mobility.initialY = ${1115.111099943335m, 3569.57m, 1518.32m, 2841.71m, 3401.11m, 958.705m, 2659.3m, 3596.62m, 851.413m, 2659.98m ! Slice}
*.ue[19].mobility.initialZ = ${0m, 0.0m, 0.0m, 0.0m, 0.0m, 0.0m, 0.0m, 0.0m, 0.0m, 0.0m ! Slice}
*.ue[19].mobility.initFromDisplayString = false
*.ue[20].mobility.initialX = ${1772.6721618826534m, 3136.51m, 92.5137m, 2319.7m, 3780.12m, 1774.05m, 917.627m, 3404.87m, 2191.34m, 3355.17m ! Slice}
*.ue[20].mobility.initialY = ${1091.205436287929m, 1393.05m, 1791.21m, 2066.45m, 2233.09m, 2510.28m, 2784.25m, 3103.11m, 3370.29m, 3964.06m ! Slice}
*.ue[20].mobility.initialZ = ${0m, 0.0m, 0.0m, 0.0m, 0.0m, 0.0m, 0.0m, 0.0m, 0.0m, 0.0m ! Slice}
*.ue[20].mobility.initFromDisplayString = false
*.ue[21].mobility.initialX = ${1766.2721198858408m, 2584.98m, 2413.67m, 157.495m, 2812.65m, 1609.61m, 1454.96m, 2614.0m, 899.453m, 3077.68m ! Slice}
*.ue[21].mobility.initialY = ${1066.360150914266m, 757.719m, 519.189m, 300.255m, 95.2797m, 181.642m, 395.164m, 681.692m, 853.334m, 1149.64m ! Slice}
*.ue[21].mobility.initialZ = ${0m, 0.0m, 0.0m, 0.0m, 0.0m, 0.0m, 0.0m, 0.0m, 0.0m, 0.0m ! Slice}
*.ue[21].mobility.initFromDisplayString = false
*.ue[22].mobility.initialX = ${1839.8036613703314m, 2821.38m, 1257.23m, 1531.56m, 3729.64m, 1020.37m, 2809.3m, 1245.77m, 1769.1m, 2214.05m ! Slice}
*.ue[22].mobility.initialY = ${1081.423356118598m, 1819.75m, 2326.78m, 2980.71m, 3730.79m, 3542.39m, 2646.55m, 1655.19m, 893.702m, 70.4956m ! Slice}
*.ue[22].mobility.initialZ = ${0m, 0.0m, 0.0m, 0.0m, 0.0m, 0.0m, 0.0m, 0.0m, 0.0m, 0.0m ! Slice}
*.ue[22].mobility.initFromDisplayString = false
*.ue[23].mobility.initialX = ${1744.1742567135807m, 3795.35m, 1401.79m, 580.58m, 3868.04m, 1421.03m, 162.212m, 391.976m, 1961.02m, 2733.34m ! Slice}
*.ue[23].mobility.initialY = ${1056.4737732830429m, 3228.57m, 1697.33m, 59.5964m, 3777.14m, 1352.12m, 19.0895m, 556.92m, 2229.31m, 3047.15m ! Slice}
*.ue[23].mobility.initialZ = ${0m, 0.0m, 0.0m, 0.0m, 0.0m, 0.0m, 0.0m, 0.0m, 0.0m, 0.0m ! Slice}
*.ue[23].mobility.initFromDisplayString = false
*.ue[24].mobility.initialX = ${1781.42815118064m, 1948.91m, 997.561m, 33.59m, 2363.93m, 3275.12m, 1271.5m, 2129.49m, 1377.93m, 1260.82m ! Slice}
*.ue[24].mobility.initialY = ${1086.3909744463326m, 3496.31m, 3577.77m, 2975.44m, 1507.58m, 195.368m, 1255.0m, 3252.76m, 1898.73m, 285.56m ! Slice}
*.ue[24].mobility.initialZ = ${0m, 0.0m, 0.0m, 0.0m, 0.0m, 0.0m, 0.0m, 0.0m, 0.0m, 0.0m ! Slice}
*.ue[24].mobility.initFromDisplayString = false
*.ue[25].mobility.initialX = ${1836.6321722537932m, 3913.91m, 574.772m, 2441.54m, 3200.74m, 1381.69m, 724.693m, 3600.64m, 628.882m, 3521.37m ! Slice}
*.ue[25].mobility.initialY = ${1134.9650600054886m, 287.494m, 1183.69m, 2358.44m, 3230.55m, 3920.39m, 3156.78m, 1561.89m, 349.489m, 1454.56m ! Slice}
*.ue[25].mobility.initialZ = ${0m, 0.0m, 0.0m, 0.0m, 0.0m, 0.0m, 0.0m, 0.0m, 0.0m, 0.0m ! Slice}
*.ue[25].mobility.initFromDisplayString = false
*.ue[26].mobility.initialX = ${1821.0817966821926m, 3446.52m, 1701.44m, 1080.35m, 3809.45m, 2592.92m, 413.158m, 3408.26m, 2206.7m, 31.1448m ! Slice}
*.ue[26].mobility.initialY = ${1055.4826184213225m, 1999.51m, 3612.62m, 2857.27m, 922.105m, 215.561m, 1082.34m, 3248.73m, 3267.69m, 2081.46m ! Slice}
*.ue[26].mobility.initialZ = ${0m, 0.0m, 0.0m, 0.0m, 0.0m, 0.0m, 0.0m, 0.0m, 0.0m, 0.0m ! Slice}
*.ue[26].mobility.initFromDisplayString = false
*.ue[27].mobility.initialX = ${1842.999611971845m, 906.475m, 197.694m, 1625.23m, 2653.79m, 3881.45m, 2882.28m, 873.391m, 1212.84m, 2375.56m ! Slice}
*.ue[27].mobility.initialY = ${1085.9995141862933m, 2579.26m, 3709.39m, 1388.93m, 479.825m, 2213.46m, 3815.36m, 612.247m, 2558.12m, 3194.19m ! Slice}
*.ue[27].mobility.initialZ = ${0m, 0.0m, 0.0m, 0.0m, 0.0m, 0.0m, 0.0m, 0.0m, 0.0m, 0.0m ! Slice}
*.ue[27].mobility.initFromDisplayString = false