#Function: ilp_sliced_ini
#Parameters:
#   filename: ../Network_CCOpMv/_5G/simulations/disaster_percentage_0/micro_power_30/chosen_seed_0/ilp_single_sliced_5.ini
#   seed: 0
#   size_y: 4000
#   size_x: 4000
#   size_sector: 400
#   n_macros: 1
#   min_sinr: 5
#   repetitions: 1
#   multi_carriers: False
#   slice_time: 1
#   is_micro: True
#   p_size: 1428
#   app: video
#   target_f: 10
#   extra_config_name: video
#   result_dir: Solutions/disaster_percentage_0/micro_power_30/chosen_seed_0
#   mode: single
#   network_name: ILPSingleNet5
#   net_dir: _5G/networks/disaster_percentage_0/micro_power_30/chosen_seed_0
#   cmdenv_config: True
#   micro_power: 30
#   xml_filename: ilp_move_users-0.sna
#   num_bands: [100]
#Extra = Using 1 macros with 60 ues each. Slicing 10s in 10 different simulations. Using microcells.
[General]
sim-time-limit = 10s

############### Statistics ###############
output-scalar-file = ${resultdir}/${configname}/${repetition}.sca
output-vector-file = ${resultdir}/${configname}/${repetition}.vec
**.vector-recording = false
eventlog-file = ${resultdir}/${configname}/${repetition}.elog
seed-set = ${repetition}

[Config ilp_single_sliced_5_video]
network = _5G.networks.disaster_percentage_0.micro_power_30.chosen_seed_0.ILPSingleNet5
sim-time-limit = 1s
repeat = 1
seed-set = ${repetition}
num-rngs = 2
seed-1-mt = 0

############### Outputs ###############
**.eNB*.cellularNic.channelModel[*].idRcvdSinr:vector.vector-recording = true
**.eNB*.cellularNic.channelModel[*].rcvdSinr:vector.vector-recording = true
**.app[*].throughput:vector.vector-recording = true
**.app[*].endToEndDelay:vector.vector-recording = true
output-scalar-file = ${resultdir}/ilp_single_sliced_5_video/5-${RBs}-${repetition}-${Slice}.sca
output-vector-file = ${resultdir}/ilp_single_sliced_5_video/5-${RBs}-${repetition}-${Slice}.vec
**.vector-recording = false
eventlog-file = ${resultdir}/ilp_single_sliced_5_video/5-${RBs}-${repetition}-${Slice}.elog

############### Cmdenv ###############
cmdenv-performance-display = false
cmdenv-redirect-output = true
cmdenv-output-file = ${resultdir}/ilp_single_sliced_5_video-cmdout/5-${RBs}-${repetition}-${Slice}.out

############### Snapshots ###############
snapshot-file = ../../../Functions/ilp_single_sliced_5_video-RBs_${RBs}-Slice_${Slice}-5-${repetition}.sna
**.snapshotter.snapshot = false
**.snapshotter.delay = 1.0

############### Transmission Power ###############
**.ueTxPower = 24
**.eNodeBTxPower = 46
**.microTxPower = 30
**.cellularNic.phy.txDirection = "OMNI"

############### Channel Control ###############
**.numComponentCarriers = 1
*.carrierAggregation.componentCarrier[0].carrierFrequency = 0.7GHz

############### Channel Model ###############
**.cellularNic.LteChannelModelType = "MoreInfoChannelModel"
**.cellularNic.channelModel[*].building_height = 20
**.cellularNic.channelModel[*].nodeb_height = 18
**.cellularNic.channelModel[*].ue_height = 1.5
**.cellularNic.channelModel[*].street_wide = 20
**.cellularNic.channelModel[*].fading_type = "JAKES"
**.cellularNic.channelModel[*].extCell_interference = false
**.cellularNic.channelModel[*].antennGainEnB = 18
**.cellularNic.channelModel[*].antennGainMicro = 5
**.cellularNic.channelModel[*].antennaGainUe = -1
**.cellularNic.channelModel[*].bs_noise_figure = 9
**.cellularNic.channelModel[*].cable_loss = 2
**.cellularNic.channelModel[*].componentCarrierIndex = 0
**.cellularNic.channelModel[*].correlation_distance = 50
**.cellularNic.channelModel[*].d2d_interference = true
**.cellularNic.channelModel[*].delay_rms = 363e-9
**.cellularNic.channelModel[*].downlink_interference = false
**.cellularNic.channelModel[*].dynamic_los = false
**.cellularNic.channelModel[*].enable_extCell_los = true
**.cellularNic.channelModel[*].fading = true
**.cellularNic.channelModel[*].fading_paths = 6
**.cellularNic.channelModel[*].fixed_los = false
**.cellularNic.channelModel[*].harqReduction = 0.2
**.cellularNic.channelModel[*].inside_building = false
**.cellularNic.channelModel[*].lambdaMaxTh = 0.2
**.cellularNic.channelModel[*].lambdaMinTh = 0.02
**.cellularNic.channelModel[*].lambdaRatioTh = 20
**.cellularNic.channelModel[*].rsrqScale = 1.0
**.cellularNic.channelModel[*].rsrqShift = 22
**.cellularNic.channelModel[*].shadowing = true
**.cellularNic.channelModel[*].targetBler = 0.01
**.cellularNic.channelModel[*].thermalNoise = -104.5
**.cellularNic.channelModel[*].tolerateMaxDistViolation = true
**.cellularNic.channelModel[*].ue_noise_figure = 7
**.cellularNic.channelModel[*].uplink_interference = false
**.cellularNic.channelModel[*].useRsrqFromLog = false
**.cellularNic.channelModel[*].useTorus = false
**.cellularNic.channelModel[*].num_slice = ${Slice= 0, 1, 2, 3, 4, 5, 6, 7, 8, 9}
**.cellularNic.channelModel[*].num_enbs = ${NumEnbs= 1, 3, 3, 3, 3, 3, 3, 3, 3, 3 ! Slice}

############### Resource Blocks ###############
**.numBands = ${RBs= 100}

############### eNBs ###############
**.eNB0.cellInfo.microCell = true
**.eNB1.cellInfo.microCell = true
**.eNB2.cellInfo.microCell = true

############### UEs ###############
**.numUe = 60

# Conecting UEs to eNodeB
**.ue[0].macCellId = ${2, 2, 3, 3, 2, 2, 1, 1, 1, 1 ! Slice}
**.ue[0].masterId = ${2, 2, 3, 3, 2, 2, 1, 1, 1, 1 ! Slice}
**.ue[1].macCellId = ${2, 2, 1, 1, 2, 1, 1, 2, 1, 1 ! Slice}
**.ue[1].masterId = ${2, 2, 1, 1, 2, 1, 1, 2, 1, 1 ! Slice}
**.ue[2].macCellId = ${2, 3, 3, 2, 2, 1, 1, 1, 1, 2 ! Slice}
**.ue[2].masterId = ${2, 3, 3, 2, 2, 1, 1, 1, 1, 2 ! Slice}
**.ue[3].macCellId = ${2, 3, 2, 2, 3, 2, 3, 2, 1, 1 ! Slice}
**.ue[3].masterId = ${2, 3, 2, 2, 3, 2, 3, 2, 1, 1 ! Slice}
**.ue[4].macCellId = ${2, 2, 3, 2, 2, 3, 2, 3, 2, 2 ! Slice}
**.ue[4].masterId = ${2, 2, 3, 2, 2, 3, 2, 3, 2, 2 ! Slice}
**.ue[5].macCellId = ${2, 1, 1, 3, 3, 1, 2, 2, 1, 3 ! Slice}
**.ue[5].masterId = ${2, 1, 1, 3, 3, 1, 2, 2, 1, 3 ! Slice}
**.ue[6].macCellId = ${2, 1, 3, 3, 1, 2, 1, 3, 3, 2 ! Slice}
**.ue[6].masterId = ${2, 1, 3, 3, 1, 2, 1, 3, 3, 2 ! Slice}
**.ue[7].macCellId = ${2, 2, 2, 3, 2, 2, 3, 2, 3, 2 ! Slice}
**.ue[7].masterId = ${2, 2, 2, 3, 2, 2, 3, 2, 3, 2 ! Slice}
**.ue[8].macCellId = ${2, 2, 3, 2, 1, 1, 2, 2, 2, 1 ! Slice}
**.ue[8].masterId = ${2, 2, 3, 2, 1, 1, 2, 2, 2, 1 ! Slice}
**.ue[9].macCellId = ${2, 2, 1, 1, 2, 2, 1, 1, 3, 1 ! Slice}
**.ue[9].masterId = ${2, 2, 1, 1, 2, 2, 1, 1, 3, 1 ! Slice}
**.ue[10].macCellId = ${2, 3, 2, 1, 1, 2, 2, 3, 2, 2 ! Slice}
**.ue[10].masterId = ${2, 3, 2, 1, 1, 2, 2, 3, 2, 2 ! Slice}
**.ue[11].macCellId = ${2, 2, 1, 3, 2, 1, 3, 2, 1, 2 ! Slice}
**.ue[11].masterId = ${2, 2, 1, 3, 2, 1, 3, 2, 1, 2 ! Slice}
**.ue[12].macCellId = ${2, 1, 1, 1, 1, 2, 3, 2, 2, 1 ! Slice}
**.ue[12].masterId = ${2, 1, 1, 1, 1, 2, 3, 2, 2, 1 ! Slice}
**.ue[13].macCellId = ${2, 2, 1, 3, 3, 2, 1, 3, 1, 1 ! Slice}
**.ue[13].masterId = ${2, 2, 1, 3, 3, 2, 1, 3, 1, 1 ! Slice}
**.ue[14].macCellId = ${2, 1, 2, 2, 1, 2, 2, 2, 2, 2 ! Slice}
**.ue[14].masterId = ${2, 1, 2, 2, 1, 2, 2, 2, 2, 2 ! Slice}
**.ue[15].macCellId = ${2, 2, 1, 1, 2, 2, 1, 1, 2, 2 ! Slice}
**.ue[15].masterId = ${2, 2, 1, 1, 2, 2, 1, 1, 2, 2 ! Slice}
**.ue[16].macCellId = ${2, 1, 1, 2, 3, 2, 1, 1, 1, 2 ! Slice}
**.ue[16].masterId = ${2, 1, 1, 2, 3, 2, 1, 1, 1, 2 ! Slice}
**.ue[17].macCellId = ${2, 1, 2, 1, 3, 1, 3, 1, 2, 2 ! Slice}
**.ue[17].masterId = ${2, 1, 2, 1, 3, 1, 3, 1, 2, 2 ! Slice}
**.ue[18].macCellId = ${2, 1, 2, 2, 2, 2, 2, 2, 1, 2 ! Slice}
**.ue[18].masterId = ${2, 1, 2, 2, 2, 2, 2, 2, 1, 2 ! Slice}
**.ue[19].macCellId = ${2, 3, 1, 1, 1, 3, 2, 1, 1, 2 ! Slice}
**.ue[19].masterId = ${2, 3, 1, 1, 1, 3, 2, 1, 1, 2 ! Slice}
**.ue[20].macCellId = ${2, 2, 2, 1, 2, 3, 2, 2, 1, 1 ! Slice}
**.ue[20].masterId = ${2, 2, 2, 1, 2, 3, 2, 2, 1, 1 ! Slice}
**.ue[21].macCellId = ${2, 1, 3, 1, 2, 2, 1, 1, 2, 1 ! Slice}
**.ue[21].masterId = ${2, 1, 3, 1, 2, 2, 1, 1, 2, 1 ! Slice}
**.ue[22].macCellId = ${2, 2, 1, 3, 3, 1, 2, 2, 2, 2 ! Slice}
**.ue[22].masterId = ${2, 2, 1, 3, 3, 1, 2, 2, 2, 2 ! Slice}
**.ue[23].macCellId = ${2, 2, 3, 1, 2, 3, 1, 1, 2, 2 ! Slice}
**.ue[23].masterId = ${2, 2, 3, 1, 2, 3, 1, 1, 2, 2 ! Slice}
**.ue[24].macCellId = ${2, 3, 2, 2, 1, 1, 1, 1, 2, 2 ! Slice}
**.ue[24].masterId = ${2, 3, 2, 2, 1, 1, 1, 1, 2, 2 ! Slice}
**.ue[25].macCellId = ${2, 1, 1, 1, 3, 1, 2, 1, 3, 1 ! Slice}
**.ue[25].masterId = ${2, 1, 1, 1, 3, 1, 2, 1, 3, 1 ! Slice}
**.ue[26].macCellId = ${2, 2, 2, 2, 2, 1, 2, 1, 1, 1 ! Slice}
**.ue[26].masterId = ${2, 2, 2, 2, 2, 1, 2, 1, 1, 1 ! Slice}
**.ue[27].macCellId = ${2, 2, 1, 1, 2, 2, 1, 2, 2, 2 ! Slice}
**.ue[27].masterId = ${2, 2, 1, 1, 2, 2, 1, 2, 2, 2 ! Slice}
**.ue[28].macCellId = ${2, 3, 1, 1, 1, 1, 2, 1, 3, 2 ! Slice}
**.ue[28].masterId = ${2, 3, 1, 1, 1, 1, 2, 1, 3, 2 ! Slice}
**.ue[29].macCellId = ${2, 2, 1, 2, 2, 1, 1, 2, 1, 1 ! Slice}
**.ue[29].masterId = ${2, 2, 1, 2, 2, 1, 1, 2, 1, 1 ! Slice}
**.ue[30].macCellId = ${2, 2, 1, 3, 2, 1, 2, 2, 1, 3 ! Slice}
**.ue[30].masterId = ${2, 2, 1, 3, 2, 1, 2, 2, 1, 3 ! Slice}
**.ue[31].macCellId = ${2, 2, 2, 1, 1, 1, 1, 1, 3, 3 ! Slice}
**.ue[31].masterId = ${2, 2, 2, 1, 1, 1, 1, 1, 3, 3 ! Slice}
**.ue[32].macCellId = ${2, 1, 2, 2, 1, 3, 1, 1, 2, 2 ! Slice}
**.ue[32].masterId = ${2, 1, 2, 2, 1, 3, 1, 1, 2, 2 ! Slice}
**.ue[33].macCellId = ${2, 2, 1, 2, 2, 1, 2, 3, 1, 1 ! Slice}
**.ue[33].masterId = ${2, 2, 1, 2, 2, 1, 2, 3, 1, 1 ! Slice}
**.ue[34].macCellId = ${2, 3, 2, 2, 3, 2, 3, 2, 3, 2 ! Slice}
**.ue[34].masterId = ${2, 3, 2, 2, 3, 2, 3, 2, 3, 2 ! Slice}
**.ue[35].macCellId = ${2, 1, 2, 1, 3, 3, 3, 2, 2, 1 ! Slice}
**.ue[35].masterId = ${2, 1, 2, 1, 3, 3, 3, 2, 2, 1 ! Slice}
**.ue[36].macCellId = ${2, 1, 1, 1, 2, 3, 1, 1, 1, 1 ! Slice}
**.ue[36].masterId = ${2, 1, 1, 1, 2, 3, 1, 1, 1, 1 ! Slice}
**.ue[37].macCellId = ${2, 2, 2, 2, 1, 1, 3, 1, 3, 3 ! Slice}
**.ue[37].masterId = ${2, 2, 2, 2, 1, 1, 3, 1, 3, 3 ! Slice}
**.ue[38].macCellId = ${2, 1, 1, 2, 1, 2, 1, 1, 1, 1 ! Slice}
**.ue[38].masterId = ${2, 1, 1, 2, 1, 2, 1, 1, 1, 1 ! Slice}
**.ue[39].macCellId = ${2, 2, 3, 1, 1, 1, 3, 2, 2, 1 ! Slice}
**.ue[39].masterId = ${2, 2, 3, 1, 1, 1, 3, 2, 2, 1 ! Slice}
**.ue[40].macCellId = ${2, 2, 1, 1, 3, 1, 3, 1, 1, 2 ! Slice}
**.ue[40].masterId = ${2, 2, 1, 1, 3, 1, 3, 1, 1, 2 ! Slice}
**.ue[41].macCellId = ${2, 1, 3, 3, 1, 2, 2, 1, 1, 3 ! Slice}
**.ue[41].masterId = ${2, 1, 3, 3, 1, 2, 2, 1, 1, 3 ! Slice}
**.ue[42].macCellId = ${2, 3, 1, 2, 3, 2, 1, 1, 3, 2 ! Slice}
**.ue[42].masterId = ${2, 3, 1, 2, 3, 2, 1, 1, 3, 2 ! Slice}
**.ue[43].macCellId = ${2, 3, 1, 1, 1, 1, 2, 3, 2, 2 ! Slice}
**.ue[43].masterId = ${2, 3, 1, 1, 1, 1, 2, 3, 2, 2 ! Slice}
**.ue[44].macCellId = ${2, 1, 2, 1, 2, 2, 1, 3, 1, 3 ! Slice}
**.ue[44].masterId = ${2, 1, 2, 1, 2, 2, 1, 3, 1, 3 ! Slice}
**.ue[45].macCellId = ${2, 1, 1, 2, 2, 2, 1, 2, 2, 3 ! Slice}
**.ue[45].masterId = ${2, 1, 1, 2, 2, 2, 1, 2, 2, 3 ! Slice}
**.ue[46].macCellId = ${2, 2, 1, 2, 2, 1, 3, 1, 2, 2 ! Slice}
**.ue[46].masterId = ${2, 2, 1, 2, 2, 1, 3, 1, 2, 2 ! Slice}
**.ue[47].macCellId = ${2, 1, 1, 2, 2, 1, 1, 2, 2, 1 ! Slice}
**.ue[47].masterId = ${2, 1, 1, 2, 2, 1, 1, 2, 2, 1 ! Slice}
**.ue[48].macCellId = ${2, 2, 1, 1, 2, 3, 1, 1, 1, 2 ! Slice}
**.ue[48].masterId = ${2, 2, 1, 1, 2, 3, 1, 1, 1, 2 ! Slice}
**.ue[49].macCellId = ${2, 1, 1, 2, 1, 3, 1, 1, 2, 1 ! Slice}
**.ue[49].masterId = ${2, 1, 1, 2, 1, 3, 1, 1, 2, 1 ! Slice}
**.ue[50].macCellId = ${2, 2, 3, 1, 1, 1, 1, 2, 2, 2 ! Slice}
**.ue[50].masterId = ${2, 2, 3, 1, 1, 1, 1, 2, 2, 2 ! Slice}
**.ue[51].macCellId = ${2, 2, 2, 2, 1, 2, 1, 1, 3, 1 ! Slice}
**.ue[51].masterId = ${2, 2, 2, 2, 1, 2, 1, 1, 3, 1 ! Slice}
**.ue[52].macCellId = ${2, 1, 3, 1, 1, 2, 2, 2, 1, 3 ! Slice}
**.ue[52].masterId = ${2, 1, 3, 1, 1, 2, 2, 2, 1, 3 ! Slice}
**.ue[53].macCellId = ${2, 1, 1, 1, 1, 2, 2, 3, 1, 1 ! Slice}
**.ue[53].masterId = ${2, 1, 1, 1, 1, 2, 2, 3, 1, 1 ! Slice}
**.ue[54].macCellId = ${2, 1, 1, 2, 2, 1, 2, 1, 1, 2 ! Slice}
**.ue[54].masterId = ${2, 1, 1, 2, 2, 1, 2, 1, 1, 2 ! Slice}
**.ue[55].macCellId = ${2, 3, 3, 2, 3, 2, 1, 1, 1, 1 ! Slice}
**.ue[55].masterId = ${2, 3, 3, 2, 3, 2, 1, 1, 1, 1 ! Slice}
**.ue[56].macCellId = ${2, 2, 1, 3, 2, 1, 2, 2, 1, 1 ! Slice}
**.ue[56].masterId = ${2, 2, 1, 3, 2, 1, 2, 2, 1, 1 ! Slice}
**.ue[57].macCellId = ${2, 2, 3, 2, 2, 2, 3, 2, 3, 3 ! Slice}
**.ue[57].masterId = ${2, 2, 3, 2, 2, 2, 3, 2, 3, 3 ! Slice}
**.ue[58].macCellId = ${2, 2, 1, 2, 3, 1, 2, 2, 1, 2 ! Slice}
**.ue[58].masterId = ${2, 2, 1, 2, 3, 1, 2, 2, 1, 2 ! Slice}
**.ue[59].macCellId = ${2, 2, 1, 1, 1, 1, 2, 3, 2, 2 ! Slice}
**.ue[59].masterId = ${2, 2, 1, 1, 1, 1, 2, 3, 2, 2 ! Slice}

# Scheduler
**.schedulingDisciplineUl = ${sched= "MAXCI"}
**.schedulingDisciplineDl = ${sched}

############### Scenario ###############

# eNodeBs
**.eNB0.cellularNic.channelModel[*].scenario = "URBAN_MICROCELL"
**.eNB1.cellularNic.channelModel[*].scenario = "URBAN_MICROCELL"
**.eNB2.cellularNic.channelModel[*].scenario = "URBAN_MICROCELL"

# UEs
**.ue[0].cellularNic.channelModel[*].scenario = "URBAN_MICROCELL"
**.ue[1].cellularNic.channelModel[*].scenario = "URBAN_MICROCELL"
**.ue[2].cellularNic.channelModel[*].scenario = "URBAN_MICROCELL"
**.ue[3].cellularNic.channelModel[*].scenario = "URBAN_MICROCELL"
**.ue[4].cellularNic.channelModel[*].scenario = "URBAN_MICROCELL"
**.ue[5].cellularNic.channelModel[*].scenario = "URBAN_MICROCELL"
**.ue[6].cellularNic.channelModel[*].scenario = "URBAN_MICROCELL"
**.ue[7].cellularNic.channelModel[*].scenario = "URBAN_MICROCELL"
**.ue[8].cellularNic.channelModel[*].scenario = "URBAN_MICROCELL"
**.ue[9].cellularNic.channelModel[*].scenario = "URBAN_MICROCELL"
**.ue[10].cellularNic.channelModel[*].scenario = "URBAN_MICROCELL"
**.ue[11].cellularNic.channelModel[*].scenario = "URBAN_MICROCELL"
**.ue[12].cellularNic.channelModel[*].scenario = "URBAN_MICROCELL"
**.ue[13].cellularNic.channelModel[*].scenario = "URBAN_MICROCELL"
**.ue[14].cellularNic.channelModel[*].scenario = "URBAN_MICROCELL"
**.ue[15].cellularNic.channelModel[*].scenario = "URBAN_MICROCELL"
**.ue[16].cellularNic.channelModel[*].scenario = "URBAN_MICROCELL"
**.ue[17].cellularNic.channelModel[*].scenario = "URBAN_MICROCELL"
**.ue[18].cellularNic.channelModel[*].scenario = "URBAN_MICROCELL"
**.ue[19].cellularNic.channelModel[*].scenario = "URBAN_MICROCELL"
**.ue[20].cellularNic.channelModel[*].scenario = "URBAN_MICROCELL"
**.ue[21].cellularNic.channelModel[*].scenario = "URBAN_MICROCELL"
**.ue[22].cellularNic.channelModel[*].scenario = "URBAN_MICROCELL"
**.ue[23].cellularNic.channelModel[*].scenario = "URBAN_MICROCELL"
**.ue[24].cellularNic.channelModel[*].scenario = "URBAN_MICROCELL"
**.ue[25].cellularNic.channelModel[*].scenario = "URBAN_MICROCELL"
**.ue[26].cellularNic.channelModel[*].scenario = "URBAN_MICROCELL"
**.ue[27].cellularNic.channelModel[*].scenario = "URBAN_MICROCELL"
**.ue[28].cellularNic.channelModel[*].scenario = "URBAN_MICROCELL"
**.ue[29].cellularNic.channelModel[*].scenario = "URBAN_MICROCELL"
**.ue[30].cellularNic.channelModel[*].scenario = "URBAN_MICROCELL"
**.ue[31].cellularNic.channelModel[*].scenario = "URBAN_MICROCELL"
**.ue[32].cellularNic.channelModel[*].scenario = "URBAN_MICROCELL"
**.ue[33].cellularNic.channelModel[*].scenario = "URBAN_MICROCELL"
**.ue[34].cellularNic.channelModel[*].scenario = "URBAN_MICROCELL"
**.ue[35].cellularNic.channelModel[*].scenario = "URBAN_MICROCELL"
**.ue[36].cellularNic.channelModel[*].scenario = "URBAN_MICROCELL"
**.ue[37].cellularNic.channelModel[*].scenario = "URBAN_MICROCELL"
**.ue[38].cellularNic.channelModel[*].scenario = "URBAN_MICROCELL"
**.ue[39].cellularNic.channelModel[*].scenario = "URBAN_MICROCELL"
**.ue[40].cellularNic.channelModel[*].scenario = "URBAN_MICROCELL"
**.ue[41].cellularNic.channelModel[*].scenario = "URBAN_MICROCELL"
**.ue[42].cellularNic.channelModel[*].scenario = "URBAN_MICROCELL"
**.ue[43].cellularNic.channelModel[*].scenario = "URBAN_MICROCELL"
**.ue[44].cellularNic.channelModel[*].scenario = "URBAN_MICROCELL"
**.ue[45].cellularNic.channelModel[*].scenario = "URBAN_MICROCELL"
**.ue[46].cellularNic.channelModel[*].scenario = "URBAN_MICROCELL"
**.ue[47].cellularNic.channelModel[*].scenario = "URBAN_MICROCELL"
**.ue[48].cellularNic.channelModel[*].scenario = "URBAN_MICROCELL"
**.ue[49].cellularNic.channelModel[*].scenario = "URBAN_MICROCELL"
**.ue[50].cellularNic.channelModel[*].scenario = "URBAN_MICROCELL"
**.ue[51].cellularNic.channelModel[*].scenario = "URBAN_MICROCELL"
**.ue[52].cellularNic.channelModel[*].scenario = "URBAN_MICROCELL"
**.ue[53].cellularNic.channelModel[*].scenario = "URBAN_MICROCELL"
**.ue[54].cellularNic.channelModel[*].scenario = "URBAN_MICROCELL"
**.ue[55].cellularNic.channelModel[*].scenario = "URBAN_MICROCELL"
**.ue[56].cellularNic.channelModel[*].scenario = "URBAN_MICROCELL"
**.ue[57].cellularNic.channelModel[*].scenario = "URBAN_MICROCELL"
**.ue[58].cellularNic.channelModel[*].scenario = "URBAN_MICROCELL"
**.ue[59].cellularNic.channelModel[*].scenario = "URBAN_MICROCELL"

############### Mobility ###############

# eNodeB
*.eNB0.mobility.initialX = 1800.0m
*.eNB0.mobility.initialY = 1000.0m
*.eNB0.mobility.initialZ = 0m
*.eNB0.mobility.initFromDisplayString = false
*.eNB1.mobility.initialX = 2600.0m
*.eNB1.mobility.initialY = 2600.0m
*.eNB1.mobility.initialZ = 0m
*.eNB1.mobility.initFromDisplayString = false
*.eNB2.mobility.initialX = 200.0m
*.eNB2.mobility.initialY = 3400.0m
*.eNB2.mobility.initialZ = 0m
*.eNB2.mobility.initFromDisplayString = false
*.eNB*.mobility.constraintAreaMaxX = 4000 m
*.eNB*.mobility.constraintAreaMaxY = 4000 m
*.eNB*.mobility.constraintAreaMaxZ = inf m
*.eNB*.mobility.constraintAreaMinX = 0 m
*.eNB*.mobility.constraintAreaMinY = 0 m
*.eNB*.mobility.constraintAreaMinZ = -inf m

# UEs

*.ue[*].mobilityType = "LinearMobility"
*.ue[0].mobility.initialX = ${2693.5113229547756m, 3353.84m, 1089.6m, 1191.53m, 3316.64m, 1787.11m, 591.016m, 2606.49m, 3794.14m, 1728.34m ! Slice}
*.ue[0].mobility.initialY = ${2558.8434990557425m, 3017.0m, 3701.11m, 3680.23m, 3105.33m, 2345.27m, 1996.8m, 1156.66m, 808.954m, 143.27m ! Slice}
*.ue[0].mobility.initialZ = ${0m, 0.0m, 0.0m, 0.0m, 0.0m, 0.0m, 0.0m, 0.0m, 0.0m, 0.0m ! Slice}
*.ue[0].mobility.initFromDisplayString = false
*.ue[1].mobility.initialX = ${2788.202497032131m, 2938.75m, 1502.41m, 376.039m, 2045.58m, 3692.29m, 3120.67m, 2466.38m, 1173.36m, 2399.92m ! Slice}
*.ue[1].mobility.initialY = ${2540.5934001439364m, 2321.4m, 260.497m, 1325.02m, 2856.84m, 979.847m, 793.579m, 1600.88m, 1509.35m, 719.126m ! Slice}
*.ue[1].mobility.initialZ = ${0m, 0.0m, 0.0m, 0.0m, 0.0m, 0.0m, 0.0m, 0.0m, 0.0m, 0.0m ! Slice}
*.ue[1].mobility.initFromDisplayString = false
*.ue[2].mobility.initialX = ${3003.3526703222187m, 1445.55m, 1070.96m, 3923.99m, 1505.42m, 1429.17m, 3426.36m, 761.141m, 1928.7m, 3769.2m ! Slice}
*.ue[2].mobility.initialY = ${2539.074742187694m, 3426.72m, 3826.51m, 3098.48m, 2417.72m, 1707.04m, 1111.64m, 120.724m, 590.449m, 1220.03m ! Slice}
*.ue[2].mobility.initialZ = ${0m, 0.0m, 0.0m, 0.0m, 0.0m, 0.0m, 0.0m, 0.0m, 0.0m, 0.0m ! Slice}
*.ue[2].mobility.initFromDisplayString = false
*.ue[3].mobility.initialX = ${2863.956873128614m, 1027.87m, 3586.79m, 2420.86m, 1527.9m, 3149.95m, 779.863m, 3114.56m, 1538.01m, 1304.03m ! Slice}
*.ue[3].mobility.initialY = ${2697.403652260223m, 3136.06m, 3549.97m, 3810.48m, 3691.48m, 3293.24m, 2912.51m, 2410.91m, 1971.11m, 1614.95m ! Slice}
*.ue[3].mobility.initialZ = ${0m, 0.0m, 0.0m, 0.0m, 0.0m, 0.0m, 0.0m, 0.0m, 0.0m, 0.0m ! Slice}
*.ue[3].mobility.initFromDisplayString = false
*.ue[4].mobility.initialX = ${3157.182998389391m, 2650.81m, 1186.22m, 3033.5m, 2125.38m, 693.996m, 3390.7m, 814.822m, 2751.72m, 2445.39m ! Slice}
*.ue[4].mobility.initialY = ${2484.8545900441663m, 2584.75m, 2756.89m, 2873.7m, 3006.62m, 3133.41m, 3286.29m, 3514.58m, 3693.56m, 3826.96m ! Slice}
*.ue[4].mobility.initialZ = ${0m, 0.0m, 0.0m, 0.0m, 0.0m, 0.0m, 0.0m, 0.0m, 0.0m, 0.0m ! Slice}
*.ue[4].mobility.initFromDisplayString = false
*.ue[5].mobility.initialX = ${3131.8874817610154m, 2298.83m, 1123.62m, 287.865m, 875.428m, 1825.79m, 3504.59m, 2806.64m, 1730.4m, 155.2m ! Slice}
*.ue[5].mobility.initialY = ${2549.501765094618m, 1032.65m, 1280.05m, 2629.01m, 3083.46m, 1522.37m, 1803.48m, 3077.86m, 1430.9m, 2249.04m ! Slice}
*.ue[5].mobility.initialZ = ${0m, 0.0m, 0.0m, 0.0m, 0.0m, 0.0m, 0.0m, 0.0m, 0.0m, 0.0m ! Slice}
*.ue[5].mobility.initFromDisplayString = false
*.ue[6].mobility.initialX = ${2902.048053003012m, 3554.1m, 1234.8m, 609.341m, 2451.39m, 3248.88m, 1954.13m, 604.919m, 946.303m, 2948.65m ! Slice}
*.ue[6].mobility.initialY = ${2492.311303662621m, 471.713m, 3451.66m, 2041.19m, 1395.72m, 3873.03m, 1488.68m, 2117.4m, 2936.89m, 1811.32m ! Slice}
*.ue[6].mobility.initialZ = ${0m, 0.0m, 0.0m, 0.0m, 0.0m, 0.0m, 0.0m, 0.0m, 0.0m, 0.0m ! Slice}
*.ue[6].mobility.initFromDisplayString = false
*.ue[7].mobility.initialX = ${2835.6168183807404m, 2204.3m, 3087.35m, 657.921m, 2401.84m, 2242.0m, 1221.95m, 2857.77m, 482.043m, 2984.66m ! Slice}
*.ue[7].mobility.initialY = ${2694.745008233095m, 2924.52m, 3073.62m, 3217.6m, 3370.92m, 3533.1m, 3702.56m, 3896.89m, 3934.72m, 3710.08m ! Slice}
*.ue[7].mobility.initialZ = ${0m, 0.0m, 0.0m, 0.0m, 0.0m, 0.0m, 0.0m, 0.0m, 0.0m, 0.0m ! Slice}
*.ue[7].mobility.initFromDisplayString = false
*.ue[8].mobility.initialX = ${3032.792055097972m, 2630.31m, 861.19m, 1622.36m, 2092.68m, 965.883m, 2787.08m, 2139.15m, 1261.39m, 1702.83m ! Slice}
*.ue[8].mobility.initialY = ${2686.760715258173m, 3700.82m, 3333.4m, 2259.1m, 383.505m, 1114.14m, 2988.34m, 3594.22m, 2918.25m, 681.933m ! Slice}
*.ue[8].mobility.initialZ = ${0m, 0.0m, 0.0m, 0.0m, 0.0m, 0.0m, 0.0m, 0.0m, 0.0m, 0.0m ! Slice}
*.ue[8].mobility.initFromDisplayString = false
*.ue[9].mobility.initialX = ${2952.6480188079304m, 1900.54m, 3.91017m, 1440.63m, 2712.76m, 2945.87m, 1477.0m, 538.224m, 1583.05m, 3914.43m ! Slice}
*.ue[9].mobility.initialY = ${2439.385183034915m, 3928.86m, 1375.01m, 877.721m, 2459.91m, 2281.85m, 145.919m, 1183.11m, 3941.84m, 513.26m ! Slice}
*.ue[9].mobility.initialZ = ${0m, 0.0m, 0.0m, 0.0m, 0.0m, 0.0m, 0.0m, 0.0m, 0.0m, 0.0m ! Slice}
*.ue[9].mobility.initFromDisplayString = false
*.ue[10].mobility.initialX = ${3385.9882133512488m, 382.99m, 3183.7m, 1928.56m, 1244.29m, 3506.11m, 2208.84m, 694.288m, 1769.35m, 2833.77m ! Slice}
*.ue[10].mobility.initialY = ${2589.598794959251m, 3974.66m, 1996.26m, 659.812m, 792.193m, 1889.98m, 2922.11m, 3642.46m, 3213.78m, 1847.73m ! Slice}
*.ue[10].mobility.initialZ = ${0m, 0.0m, 0.0m, 0.0m, 0.0m, 0.0m, 0.0m, 0.0m, 0.0m, 0.0m ! Slice}
*.ue[10].mobility.initFromDisplayString = false
*.ue[11].mobility.initialX = ${3389.9168907590033m, 3437.78m, 2337.03m, 3.56627m, 2087.02m, 2225.97m, 205.173m, 1675.43m, 2991.21m, 2982.17m ! Slice}
*.ue[11].mobility.initialY = ${2586.6939152828513m, 1373.72m, 38.4676m, 2741.62m, 2657.42m, 1534.52m, 3739.78m, 2087.95m, 568.708m, 1652.57m ! Slice}
*.ue[11].mobility.initialZ = ${0m, 0.0m, 0.0m, 0.0m, 0.0m, 0.0m, 0.0m, 0.0m, 0.0m, 0.0m ! Slice}
*.ue[11].mobility.initFromDisplayString = false
*.ue[12].mobility.initialX = ${2687.1468831883644m, 980.895m, 3203.46m, 1477.31m, 1678.62m, 3726.32m, 868.889m, 3532.27m, 1966.31m, 1564.15m ! Slice}
*.ue[12].mobility.initialY = ${2835.0715662541593m, 2298.59m, 733.566m, 473.097m, 1306.4m, 2201.32m, 3099.76m, 3391.01m, 2738.72m, 1730.27m ! Slice}
*.ue[12].mobility.initialZ = ${0m, 0.0m, 0.0m, 0.0m, 0.0m, 0.0m, 0.0m, 0.0m, 0.0m, 0.0m ! Slice}
*.ue[12].mobility.initFromDisplayString = false
*.ue[13].mobility.initialX = ${2725.1658381450834m, 2742.94m, 1816.97m, 649.529m, 979.85m, 3423.8m, 2715.63m, 1061.21m, 1649.11m, 2881.49m ! Slice}
*.ue[13].mobility.initialY = ${2872.767081604743m, 1914.23m, 590.17m, 2287.35m, 3079.53m, 1542.74m, 919.04m, 2898.26m, 1603.67m, 71.4679m ! Slice}
*.ue[13].mobility.initialZ = ${0m, 0.0m, 0.0m, 0.0m, 0.0m, 0.0m, 0.0m, 0.0m, 0.0m, 0.0m ! Slice}
*.ue[13].mobility.initFromDisplayString = false
*.ue[14].mobility.initialX = ${2688.8959401538023m, 2793.61m, 2978.3m, 3080.19m, 3142.98m, 3277.58m, 3424.79m, 3554.71m, 3707.15m, 3881.73m ! Slice}
*.ue[14].mobility.initialY = ${3018.105298816361m, 500.613m, 3260.42m, 2334.29m, 904.942m, 2483.4m, 1864.94m, 1348.57m, 2801.9m, 1449.21m ! Slice}
*.ue[14].mobility.initialZ = ${0m, 0.0m, 0.0m, 0.0m, 0.0m, 0.0m, 0.0m, 0.0m, 0.0m, 0.0m ! Slice}
*.ue[14].mobility.initFromDisplayString = false
*.ue[15].mobility.initialX = ${2997.4587530255358m, 1278.73m, 842.841m, 1900.86m, 2990.11m, 1220.61m, 640.948m, 2847.77m, 3501.29m, 1739.62m ! Slice}
*.ue[15].mobility.initialY = ${3107.5777638682966m, 2939.21m, 1151.65m, 356.496m, 2967.19m, 2650.0m, 1083.86m, 1587.35m, 2922.22m, 2884.8m ! Slice}
*.ue[15].mobility.initialZ = ${0m, 0.0m, 0.0m, 0.0m, 0.0m, 0.0m, 0.0m, 0.0m, 0.0m, 0.0m ! Slice}
*.ue[15].mobility.initFromDisplayString = false
*.ue[16].mobility.initialX = ${3007.9502116325752m, 807.577m, 2476.41m, 1761.31m, 745.521m, 2837.75m, 2418.6m, 530.47m, 1163.63m, 3057.11m ! Slice}
*.ue[16].mobility.initialY = ${3097.7868186310398m, 1756.51m, 176.662m, 2378.85m, 3864.6m, 2657.88m, 1097.41m, 353.616m, 1158.09m, 3167.41m ! Slice}
*.ue[16].mobility.initialZ = ${0m, 0.0m, 0.0m, 0.0m, 0.0m, 0.0m, 0.0m, 0.0m, 0.0m, 0.0m ! Slice}
*.ue[16].mobility.initFromDisplayString = false
*.ue[17].mobility.initialX = ${3084.2081855455704m, 2230.74m, 1661.84m, 825.585m, 91.0285m, 740.618m, 1460.05m, 2110.09m, 2769.43m, 3543.53m ! Slice}
*.ue[17].mobility.initialY = ${3041.8420695061996m, 1822.18m, 3949.5m, 220.325m, 3883.04m, 10.8449m, 3617.2m, 1135.8m, 2310.29m, 1689.1m ! Slice}
*.ue[17].mobility.initialZ = ${0m, 0.0m, 0.0m, 0.0m, 0.0m, 0.0m, 0.0m, 0.0m, 0.0m, 0.0m ! Slice}
*.ue[17].mobility.initFromDisplayString = false
*.ue[18].mobility.initialX = ${3064.572681163044m, 3303.26m, 3455.89m, 3607.94m, 3816.65m, 3917.23m, 3835.2m, 3714.97m, 3534.96m, 3308.28m ! Slice}
*.ue[18].mobility.initialY = ${3020.6128600445077m, 1098.33m, 1239.3m, 3409.97m, 1296.98m, 2448.47m, 3992.35m, 2136.2m, 1032.59m, 3857.06m ! Slice}
*.ue[18].mobility.initialZ = ${0m, 0.0m, 0.0m, 0.0m, 0.0m, 0.0m, 0.0m, 0.0m, 0.0m, 0.0m ! Slice}
*.ue[18].mobility.initFromDisplayString = false
*.ue[19].mobility.initialX = ${3029.9398598726693m, 207.389m, 2643.02m, 2544.61m, 1078.67m, 1338.51m, 2898.72m, 94.6444m, 1938.66m, 3905.46m ! Slice}
*.ue[19].mobility.initialY = ${3015.436941711256m, 2532.69m, 1033.07m, 943.457m, 1946.98m, 3502.53m, 2045.28m, 709.756m, 1621.1m, 3122.78m ! Slice}
*.ue[19].mobility.initialZ = ${0m, 0.0m, 0.0m, 0.0m, 0.0m, 0.0m, 0.0m, 0.0m, 0.0m, 0.0m ! Slice}
*.ue[19].mobility.initFromDisplayString = false
*.ue[20].mobility.initialX = ${3037.862984551266m, 3231.25m, 1940.57m, 1736.26m, 3163.07m, 1371.18m, 1244.45m, 2097.01m, 2579.89m, 542.114m ! Slice}
*.ue[20].mobility.initialY = ${3009.6415723709015m, 3149.04m, 2753.04m, 420.881m, 1778.91m, 3364.42m, 2820.78m, 2135.7m, 1.245m, 1728.43m ! Slice}
*.ue[20].mobility.initialZ = ${0m, 0.0m, 0.0m, 0.0m, 0.0m, 0.0m, 0.0m, 0.0m, 0.0m, 0.0m ! Slice}
*.ue[20].mobility.initFromDisplayString = false
*.ue[21].mobility.initialX = ${3020.3258692666227m, 3050.89m, 1157.38m, 1082.83m, 3299.38m, 2699.68m, 1363.32m, 918.541m, 1747.23m, 3673.0m ! Slice}
*.ue[21].mobility.initialY = ${3114.20351486259m, 415.566m, 2861.54m, 1801.01m, 2108.93m, 2878.83m, 1023.63m, 2310.1m, 3820.55m, 1174.35m ! Slice}
*.ue[21].mobility.initialZ = ${0m, 0.0m, 0.0m, 0.0m, 0.0m, 0.0m, 0.0m, 0.0m, 0.0m, 0.0m ! Slice}
*.ue[21].mobility.initFromDisplayString = false
*.ue[22].mobility.initialX = ${2958.4203219400356m, 2411.57m, 1464.09m, 193.609m, 606.735m, 1482.79m, 2342.15m, 2779.97m, 3159.27m, 3430.43m ! Slice}
*.ue[22].mobility.initialY = ${3069.1950893586445m, 3127.67m, 512.221m, 3288.65m, 2352.38m, 201.416m, 2742.46m, 3962.97m, 2841.4m, 1399.82m ! Slice}
*.ue[22].mobility.initialZ = ${0m, 0.0m, 0.0m, 0.0m, 0.0m, 0.0m, 0.0m, 0.0m, 0.0m, 0.0m ! Slice}
*.ue[22].mobility.initFromDisplayString = false
*.ue[23].mobility.initialX = ${3070.1792304631686m, 1634.82m, 458.99m, 1551.7m, 3214.06m, 1108.29m, 692.074m, 3135.21m, 2570.94m, 1311.45m ! Slice}
*.ue[23].mobility.initialY = ${3091.835629235178m, 3301.44m, 2315.66m, 388.064m, 1368.39m, 2639.83m, 1399.92m, 1445.22m, 3355.62m, 3189.57m ! Slice}
*.ue[23].mobility.initialZ = ${0m, 0.0m, 0.0m, 0.0m, 0.0m, 0.0m, 0.0m, 0.0m, 0.0m, 0.0m ! Slice}
*.ue[23].mobility.initFromDisplayString = false
*.ue[24].mobility.initialX = ${2971.498604194866m, 489.944m, 3119.05m, 3390.75m, 708.398m, 2864.57m, 2773.04m, 1241.7m, 3046.66m, 2395.79m ! Slice}
*.ue[24].mobility.initialY = ${3020.6095979554725m, 3852.08m, 2941.93m, 2476.77m, 1540.61m, 370.987m, 440.705m, 1610.17m, 2398.06m, 3205.79m ! Slice}
*.ue[24].mobility.initialZ = ${0m, 0.0m, 0.0m, 0.0m, 0.0m, 0.0m, 0.0m, 0.0m, 0.0m, 0.0m ! Slice}
*.ue[24].mobility.initFromDisplayString = false
*.ue[25].mobility.initialX = ${3004.517488324027m, 2325.22m, 1392.73m, 708.6m, 640.176m, 2475.15m, 3417.59m, 2394.43m, 780.723m, 1527.98m ! Slice}
*.ue[25].mobility.initialY = ${3100.4637503694735m, 1673.16m, 589.082m, 1723.62m, 3284.88m, 413.189m, 2393.4m, 932.733m, 2531.61m, 772.048m ! Slice}
*.ue[25].mobility.initialZ = ${0m, 0.0m, 0.0m, 0.0m, 0.0m, 0.0m, 0.0m, 0.0m, 0.0m, 0.0m ! Slice}
*.ue[25].mobility.initFromDisplayString = false
*.ue[26].mobility.initialX = ${2961.723358835892m, 2623.36m, 1570.69m, 3006.36m, 1827.22m, 1140.88m, 2502.37m, 958.319m, 2002.62m, 1920.24m ! Slice}
*.ue[26].mobility.initialY = ${3057.383862525563m, 2897.05m, 2614.87m, 2365.59m, 2243.0m, 2051.76m, 1928.49m, 1618.21m, 1394.84m, 1114.52m ! Slice}
*.ue[26].mobility.initialZ = ${0m, 0.0m, 0.0m, 0.0m, 0.0m, 0.0m, 0.0m, 0.0m, 0.0m, 0.0m ! Slice}
*.ue[26].mobility.initFromDisplayString = false
*.ue[27].mobility.initialX = ${3008.4043727701373m, 2726.5m, 456.322m, 926.295m, 2665.85m, 2573.55m, 50.177m, 2641.69m, 3463.52m, 2228.14m ! Slice}
*.ue[27].mobility.initialY = ${3107.075532903182m, 2799.96m, 692.082m, 642.462m, 2199.86m, 3130.24m, 812.853m, 1696.76m, 2348.79m, 3282.23m ! Slice}
*.ue[27].mobility.initialZ = ${0m, 0.0m, 0.0m, 0.0m, 0.0m, 0.0m, 0.0m, 0.0m, 0.0m, 0.0m ! Slice}
*.ue[27].mobility.initFromDisplayString = false