#Function: ilp_sliced_ini
#Parameters:
#   filename: ../Network_CCOpMv/_5G/simulations/disaster_percentage_0/micro_power_30/chosen_seed_8/ilp_single_sliced_5.ini
#   seed: 8
#   size_y: 4000
#   size_x: 4000
#   size_sector: 400
#   n_macros: 1
#   min_sinr: 5
#   repetitions: 1
#   multi_carriers: False
#   slice_time: 1
#   is_micro: True
#   p_size: 1428
#   app: video
#   target_f: 10
#   extra_config_name: video
#   result_dir: Solutions/disaster_percentage_0/micro_power_30/chosen_seed_8
#   mode: single
#   network_name: ILPSingleNet5
#   net_dir: _5G/networks/disaster_percentage_0/micro_power_30/chosen_seed_8
#   cmdenv_config: True
#   micro_power: 30
#   xml_filename: ilp_move_users-8.sna
#   num_bands: [100]
#Extra = Using 1 macros with 60 ues each. Slicing 10s in 10 different simulations. Using microcells.
[General]
sim-time-limit = 10s

############### Statistics ###############
output-scalar-file = ${resultdir}/${configname}/${repetition}.sca
output-vector-file = ${resultdir}/${configname}/${repetition}.vec
**.vector-recording = false
eventlog-file = ${resultdir}/${configname}/${repetition}.elog
seed-set = ${repetition}

[Config ilp_single_sliced_5_video]
network = _5G.networks.disaster_percentage_0.micro_power_30.chosen_seed_8.ILPSingleNet5
sim-time-limit = 1s
repeat = 1
seed-set = ${repetition}
num-rngs = 2
seed-1-mt = 8

############### Outputs ###############
**.eNB*.cellularNic.channelModel[*].idRcvdSinr:vector.vector-recording = true
**.eNB*.cellularNic.channelModel[*].rcvdSinr:vector.vector-recording = true
**.app[*].throughput:vector.vector-recording = true
**.app[*].endToEndDelay:vector.vector-recording = true
output-scalar-file = ${resultdir}/ilp_single_sliced_5_video/5-${RBs}-${repetition}-${Slice}.sca
output-vector-file = ${resultdir}/ilp_single_sliced_5_video/5-${RBs}-${repetition}-${Slice}.vec
**.vector-recording = false
eventlog-file = ${resultdir}/ilp_single_sliced_5_video/5-${RBs}-${repetition}-${Slice}.elog

############### Cmdenv ###############
cmdenv-performance-display = false
cmdenv-redirect-output = true
cmdenv-output-file = ${resultdir}/ilp_single_sliced_5_video-cmdout/5-${RBs}-${repetition}-${Slice}.out

############### Snapshots ###############
snapshot-file = ../../../Functions/ilp_single_sliced_5_video-RBs_${RBs}-Slice_${Slice}-5-${repetition}.sna
**.snapshotter.snapshot = false
**.snapshotter.delay = 1.0

############### Transmission Power ###############
**.ueTxPower = 24
**.eNodeBTxPower = 46
**.microTxPower = 30
**.cellularNic.phy.txDirection = "OMNI"

############### Channel Control ###############
**.numComponentCarriers = 1
*.carrierAggregation.componentCarrier[0].carrierFrequency = 0.7GHz

############### Channel Model ###############
**.cellularNic.LteChannelModelType = "MoreInfoChannelModel"
**.cellularNic.channelModel[*].building_height = 20
**.cellularNic.channelModel[*].nodeb_height = 18
**.cellularNic.channelModel[*].ue_height = 1.5
**.cellularNic.channelModel[*].street_wide = 20
**.cellularNic.channelModel[*].fading_type = "JAKES"
**.cellularNic.channelModel[*].extCell_interference = false
**.cellularNic.channelModel[*].antennGainEnB = 18
**.cellularNic.channelModel[*].antennGainMicro = 5
**.cellularNic.channelModel[*].antennaGainUe = -1
**.cellularNic.channelModel[*].bs_noise_figure = 9
**.cellularNic.channelModel[*].cable_loss = 2
**.cellularNic.channelModel[*].componentCarrierIndex = 0
**.cellularNic.channelModel[*].correlation_distance = 50
**.cellularNic.channelModel[*].d2d_interference = true
**.cellularNic.channelModel[*].delay_rms = 363e-9
**.cellularNic.channelModel[*].downlink_interference = false
**.cellularNic.channelModel[*].dynamic_los = false
**.cellularNic.channelModel[*].enable_extCell_los = true
**.cellularNic.channelModel[*].fading = true
**.cellularNic.channelModel[*].fading_paths = 6
**.cellularNic.channelModel[*].fixed_los = false
**.cellularNic.channelModel[*].harqReduction = 0.2
**.cellularNic.channelModel[*].inside_building = false
**.cellularNic.channelModel[*].lambdaMaxTh = 0.2
**.cellularNic.channelModel[*].lambdaMinTh = 0.02
**.cellularNic.channelModel[*].lambdaRatioTh = 20
**.cellularNic.channelModel[*].rsrqScale = 1.0
**.cellularNic.channelModel[*].rsrqShift = 22
**.cellularNic.channelModel[*].shadowing = true
**.cellularNic.channelModel[*].targetBler = 0.01
**.cellularNic.channelModel[*].thermalNoise = -104.5
**.cellularNic.channelModel[*].tolerateMaxDistViolation = true
**.cellularNic.channelModel[*].ue_noise_figure = 7
**.cellularNic.channelModel[*].uplink_interference = false
**.cellularNic.channelModel[*].useRsrqFromLog = false
**.cellularNic.channelModel[*].useTorus = false
**.cellularNic.channelModel[*].num_slice = ${Slice= 0, 1, 2, 3, 4, 5, 6, 7, 8, 9}
**.cellularNic.channelModel[*].num_enbs = ${NumEnbs= 1, 3, 3, 3, 3, 3, 3, 3, 3, 3 ! Slice}

############### Resource Blocks ###############
**.numBands = ${RBs= 100}

############### eNBs ###############
**.eNB0.cellInfo.microCell = true
**.eNB1.cellInfo.microCell = true
**.eNB2.cellInfo.microCell = true

############### UEs ###############
**.numUe = 60

# Conecting UEs to eNodeB
**.ue[0].macCellId = ${3, 1, 2, 2, 3, 3, 2, 2, 3, 2 ! Slice}
**.ue[0].masterId = ${3, 1, 2, 2, 3, 3, 2, 2, 3, 2 ! Slice}
**.ue[1].macCellId = ${3, 2, 1, 3, 2, 2, 3, 2, 2, 3 ! Slice}
**.ue[1].masterId = ${3, 2, 1, 3, 2, 2, 3, 2, 2, 3 ! Slice}
**.ue[2].macCellId = ${3, 3, 1, 2, 3, 2, 3, 3, 1, 2 ! Slice}
**.ue[2].masterId = ${3, 3, 1, 2, 3, 2, 3, 3, 1, 2 ! Slice}
**.ue[3].macCellId = ${3, 3, 2, 2, 3, 3, 1, 2, 3, 1 ! Slice}
**.ue[3].masterId = ${3, 3, 2, 2, 3, 3, 1, 2, 3, 1 ! Slice}
**.ue[4].macCellId = ${3, 1, 3, 3, 1, 2, 3, 2, 2, 3 ! Slice}
**.ue[4].masterId = ${3, 1, 3, 3, 1, 2, 3, 2, 2, 3 ! Slice}
**.ue[5].macCellId = ${3, 2, 2, 3, 2, 3, 3, 2, 2, 3 ! Slice}
**.ue[5].masterId = ${3, 2, 2, 3, 2, 3, 3, 2, 2, 3 ! Slice}
**.ue[6].macCellId = ${3, 1, 2, 3, 3, 1, 2, 3, 2, 1 ! Slice}
**.ue[6].masterId = ${3, 1, 2, 3, 3, 1, 2, 3, 2, 1 ! Slice}
**.ue[7].macCellId = ${3, 1, 2, 2, 3, 1, 3, 2, 1, 3 ! Slice}
**.ue[7].masterId = ${3, 1, 2, 2, 3, 1, 3, 2, 1, 3 ! Slice}
**.ue[8].macCellId = ${3, 2, 2, 3, 2, 2, 2, 3, 1, 2 ! Slice}
**.ue[8].masterId = ${3, 2, 2, 3, 2, 2, 2, 3, 1, 2 ! Slice}
**.ue[9].macCellId = ${3, 2, 1, 2, 1, 3, 2, 3, 3, 2 ! Slice}
**.ue[9].masterId = ${3, 2, 1, 2, 1, 3, 2, 3, 3, 2 ! Slice}
**.ue[10].macCellId = ${3, 2, 2, 3, 3, 2, 1, 3, 2, 1 ! Slice}
**.ue[10].masterId = ${3, 2, 2, 3, 3, 2, 1, 3, 2, 1 ! Slice}
**.ue[11].macCellId = ${3, 1, 3, 2, 2, 2, 2, 1, 3, 1 ! Slice}
**.ue[11].masterId = ${3, 1, 3, 2, 2, 2, 2, 1, 3, 1 ! Slice}
**.ue[12].macCellId = ${3, 1, 1, 3, 2, 2, 2, 3, 1, 3 ! Slice}
**.ue[12].masterId = ${3, 1, 1, 3, 2, 2, 2, 3, 1, 3 ! Slice}
**.ue[13].macCellId = ${3, 2, 2, 3, 2, 2, 3, 2, 3, 2 ! Slice}
**.ue[13].masterId = ${3, 2, 2, 3, 2, 2, 3, 2, 3, 2 ! Slice}
**.ue[14].macCellId = ${3, 2, 2, 3, 1, 2, 2, 1, 1, 3 ! Slice}
**.ue[14].masterId = ${3, 2, 2, 3, 1, 2, 2, 1, 1, 3 ! Slice}
**.ue[15].macCellId = ${3, 3, 2, 1, 2, 1, 3, 2, 3, 2 ! Slice}
**.ue[15].masterId = ${3, 3, 2, 1, 2, 1, 3, 2, 3, 2 ! Slice}
**.ue[16].macCellId = ${3, 2, 3, 2, 2, 2, 2, 3, 2, 3 ! Slice}
**.ue[16].masterId = ${3, 2, 3, 2, 2, 2, 2, 3, 2, 3 ! Slice}
**.ue[17].macCellId = ${3, 2, 1, 3, 3, 3, 1, 1, 2, 3 ! Slice}
**.ue[17].masterId = ${3, 2, 1, 3, 3, 3, 1, 1, 2, 3 ! Slice}
**.ue[18].macCellId = ${3, 3, 3, 2, 2, 1, 2, 3, 3, 2 ! Slice}
**.ue[18].masterId = ${3, 3, 3, 2, 2, 1, 2, 3, 3, 2 ! Slice}
**.ue[19].macCellId = ${3, 1, 2, 2, 3, 2, 2, 3, 3, 3 ! Slice}
**.ue[19].masterId = ${3, 1, 2, 2, 3, 2, 2, 3, 3, 3 ! Slice}
**.ue[20].macCellId = ${3, 2, 3, 1, 2, 2, 2, 3, 3, 2 ! Slice}
**.ue[20].masterId = ${3, 2, 3, 1, 2, 2, 2, 3, 3, 2 ! Slice}
**.ue[21].macCellId = ${3, 1, 1, 3, 3, 2, 2, 2, 3, 3 ! Slice}
**.ue[21].masterId = ${3, 1, 1, 3, 3, 2, 2, 2, 3, 3 ! Slice}
**.ue[22].macCellId = ${3, 3, 2, 2, 2, 1, 1, 2, 3, 3 ! Slice}
**.ue[22].masterId = ${3, 3, 2, 2, 2, 1, 1, 2, 3, 3 ! Slice}
**.ue[23].macCellId = ${3, 2, 2, 2, 2, 2, 2, 2, 3, 3 ! Slice}
**.ue[23].masterId = ${3, 2, 2, 2, 2, 2, 2, 2, 3, 3 ! Slice}
**.ue[24].macCellId = ${3, 2, 2, 3, 1, 3, 2, 2, 2, 1 ! Slice}
**.ue[24].masterId = ${3, 2, 2, 3, 1, 3, 2, 2, 2, 1 ! Slice}
**.ue[25].macCellId = ${3, 3, 2, 2, 1, 3, 3, 2, 1, 1 ! Slice}
**.ue[25].masterId = ${3, 3, 2, 2, 1, 3, 3, 2, 1, 1 ! Slice}
**.ue[26].macCellId = ${3, 2, 2, 1, 1, 2, 1, 3, 3, 3 ! Slice}
**.ue[26].masterId = ${3, 2, 2, 1, 1, 2, 1, 3, 3, 3 ! Slice}
**.ue[27].macCellId = ${3, 3, 3, 2, 1, 1, 2, 2, 3, 2 ! Slice}
**.ue[27].masterId = ${3, 3, 3, 2, 1, 1, 2, 2, 3, 2 ! Slice}
**.ue[28].macCellId = ${3, 3, 2, 2, 3, 2, 2, 3, 3, 2 ! Slice}
**.ue[28].masterId = ${3, 3, 2, 2, 3, 2, 2, 3, 3, 2 ! Slice}
**.ue[29].macCellId = ${3, 1, 2, 3, 3, 3, 1, 2, 3, 1 ! Slice}
**.ue[29].masterId = ${3, 1, 2, 3, 3, 3, 1, 2, 3, 1 ! Slice}
**.ue[30].macCellId = ${3, 2, 3, 3, 2, 2, 2, 1, 2, 2 ! Slice}
**.ue[30].masterId = ${3, 2, 3, 3, 2, 2, 2, 1, 2, 2 ! Slice}
**.ue[31].macCellId = ${3, 2, 2, 2, 3, 1, 1, 3, 3, 3 ! Slice}
**.ue[31].masterId = ${3, 2, 2, 2, 3, 1, 1, 3, 3, 3 ! Slice}
**.ue[32].macCellId = ${3, 3, 1, 2, 2, 1, 3, 3, 2, 2 ! Slice}
**.ue[32].masterId = ${3, 3, 1, 2, 2, 1, 3, 3, 2, 2 ! Slice}
**.ue[33].macCellId = ${3, 3, 2, 2, 3, 2, 2, 2, 3, 3 ! Slice}
**.ue[33].masterId = ${3, 3, 2, 2, 3, 2, 2, 2, 3, 3 ! Slice}
**.ue[34].macCellId = ${3, 2, 2, 3, 2, 2, 3, 2, 2, 3 ! Slice}
**.ue[34].masterId = ${3, 2, 2, 3, 2, 2, 3, 2, 2, 3 ! Slice}
**.ue[35].macCellId = ${3, 2, 2, 2, 3, 3, 3, 1, 2, 3 ! Slice}
**.ue[35].masterId = ${3, 2, 2, 2, 3, 3, 3, 1, 2, 3 ! Slice}
**.ue[36].macCellId = ${3, 1, 3, 2, 3, 2, 2, 2, 3, 1 ! Slice}
**.ue[36].masterId = ${3, 1, 3, 2, 3, 2, 2, 2, 3, 1 ! Slice}
**.ue[37].macCellId = ${3, 3, 1, 2, 3, 3, 1, 3, 3, 2 ! Slice}
**.ue[37].masterId = ${3, 3, 1, 2, 3, 3, 1, 3, 3, 2 ! Slice}
**.ue[38].macCellId = ${3, 3, 3, 3, 3, 2, 1, 2, 1, 2 ! Slice}
**.ue[38].masterId = ${3, 3, 3, 3, 3, 2, 1, 2, 1, 2 ! Slice}
**.ue[39].macCellId = ${3, 3, 3, 3, 2, 2, 1, 2, 1, 2 ! Slice}
**.ue[39].masterId = ${3, 3, 3, 3, 2, 2, 1, 2, 1, 2 ! Slice}
**.ue[40].macCellId = ${3, 3, 2, 3, 3, 2, 2, 3, 1, 3 ! Slice}
**.ue[40].masterId = ${3, 3, 2, 3, 3, 2, 2, 3, 1, 3 ! Slice}
**.ue[41].macCellId = ${3, 3, 2, 2, 1, 1, 2, 3, 3, 3 ! Slice}
**.ue[41].masterId = ${3, 3, 2, 2, 1, 1, 2, 3, 3, 3 ! Slice}
**.ue[42].macCellId = ${3, 3, 2, 3, 3, 2, 1, 2, 3, 3 ! Slice}
**.ue[42].masterId = ${3, 3, 2, 3, 3, 2, 1, 2, 3, 3 ! Slice}
**.ue[43].macCellId = ${3, 1, 3, 3, 2, 2, 2, 1, 3, 3 ! Slice}
**.ue[43].masterId = ${3, 1, 3, 3, 2, 2, 2, 1, 3, 3 ! Slice}
**.ue[44].macCellId = ${3, 1, 1, 3, 2, 2, 2, 2, 3, 3 ! Slice}
**.ue[44].masterId = ${3, 1, 1, 3, 2, 2, 2, 2, 3, 3 ! Slice}
**.ue[45].macCellId = ${3, 1, 3, 2, 2, 3, 2, 1, 3, 1 ! Slice}
**.ue[45].masterId = ${3, 1, 3, 2, 2, 3, 2, 1, 3, 1 ! Slice}
**.ue[46].macCellId = ${3, 3, 1, 2, 3, 2, 2, 2, 2, 3 ! Slice}
**.ue[46].masterId = ${3, 3, 1, 2, 3, 2, 2, 2, 2, 3 ! Slice}
**.ue[47].macCellId = ${3, 3, 1, 3, 2, 2, 3, 3, 1, 3 ! Slice}
**.ue[47].masterId = ${3, 3, 1, 3, 2, 2, 3, 3, 1, 3 ! Slice}
**.ue[48].macCellId = ${3, 1, 1, 3, 3, 1, 3, 2, 2, 3 ! Slice}
**.ue[48].masterId = ${3, 1, 1, 3, 3, 1, 3, 2, 2, 3 ! Slice}
**.ue[49].macCellId = ${3, 1, 3, 2, 2, 3, 1, 3, 3, 2 ! Slice}
**.ue[49].masterId = ${3, 1, 3, 2, 2, 3, 1, 3, 3, 2 ! Slice}
**.ue[50].macCellId = ${3, 2, 2, 2, 3, 1, 1, 3, 2, 3 ! Slice}
**.ue[50].masterId = ${3, 2, 2, 2, 3, 1, 1, 3, 2, 3 ! Slice}
**.ue[51].macCellId = ${3, 2, 2, 3, 1, 2, 1, 3, 2, 1 ! Slice}
**.ue[51].masterId = ${3, 2, 2, 3, 1, 2, 1, 3, 2, 1 ! Slice}
**.ue[52].macCellId = ${3, 3, 2, 1, 3, 3, 2, 2, 2, 3 ! Slice}
**.ue[52].masterId = ${3, 3, 2, 1, 3, 3, 2, 2, 2, 3 ! Slice}
**.ue[53].macCellId = ${3, 2, 2, 2, 3, 2, 2, 2, 3, 3 ! Slice}
**.ue[53].masterId = ${3, 2, 2, 2, 3, 2, 2, 2, 3, 3 ! Slice}
**.ue[54].macCellId = ${3, 3, 2, 2, 1, 3, 3, 3, 2, 1 ! Slice}
**.ue[54].masterId = ${3, 3, 2, 2, 1, 3, 3, 3, 2, 1 ! Slice}
**.ue[55].macCellId = ${3, 3, 1, 2, 3, 2, 1, 3, 2, 2 ! Slice}
**.ue[55].masterId = ${3, 3, 1, 2, 3, 2, 1, 3, 2, 2 ! Slice}
**.ue[56].macCellId = ${3, 3, 1, 2, 2, 3, 3, 2, 1, 3 ! Slice}
**.ue[56].masterId = ${3, 3, 1, 2, 2, 3, 3, 2, 1, 3 ! Slice}
**.ue[57].macCellId = ${3, 3, 3, 3, 3, 3, 2, 1, 2, 2 ! Slice}
**.ue[57].masterId = ${3, 3, 3, 3, 3, 3, 2, 1, 2, 2 ! Slice}
**.ue[58].macCellId = ${3, 3, 2, 2, 2, 2, 3, 1, 1, 3 ! Slice}
**.ue[58].masterId = ${3, 3, 2, 2, 2, 2, 3, 1, 1, 3 ! Slice}
**.ue[59].macCellId = ${3, 2, 2, 3, 1, 3, 2, 2, 2, 3 ! Slice}
**.ue[59].masterId = ${3, 2, 2, 3, 1, 3, 2, 2, 2, 3 ! Slice}

# Scheduler
**.schedulingDisciplineUl = ${sched= "MAXCI"}
**.schedulingDisciplineDl = ${sched}

############### Scenario ###############

# eNodeBs
**.eNB0.cellularNic.channelModel[*].scenario = "URBAN_MICROCELL"
**.eNB1.cellularNic.channelModel[*].scenario = "URBAN_MICROCELL"
**.eNB2.cellularNic.channelModel[*].scenario = "URBAN_MICROCELL"

# UEs
**.ue[0].cellularNic.channelModel[*].scenario = "URBAN_MICROCELL"
**.ue[1].cellularNic.channelModel[*].scenario = "URBAN_MICROCELL"
**.ue[2].cellularNic.channelModel[*].scenario = "URBAN_MICROCELL"
**.ue[3].cellularNic.channelModel[*].scenario = "URBAN_MICROCELL"
**.ue[4].cellularNic.channelModel[*].scenario = "URBAN_MICROCELL"
**.ue[5].cellularNic.channelModel[*].scenario = "URBAN_MICROCELL"
**.ue[6].cellularNic.channelModel[*].scenario = "URBAN_MICROCELL"
**.ue[7].cellularNic.channelModel[*].scenario = "URBAN_MICROCELL"
**.ue[8].cellularNic.channelModel[*].scenario = "URBAN_MICROCELL"
**.ue[9].cellularNic.channelModel[*].scenario = "URBAN_MICROCELL"
**.ue[10].cellularNic.channelModel[*].scenario = "URBAN_MICROCELL"
**.ue[11].cellularNic.channelModel[*].scenario = "URBAN_MICROCELL"
**.ue[12].cellularNic.channelModel[*].scenario = "URBAN_MICROCELL"
**.ue[13].cellularNic.channelModel[*].scenario = "URBAN_MICROCELL"
**.ue[14].cellularNic.channelModel[*].scenario = "URBAN_MICROCELL"
**.ue[15].cellularNic.channelModel[*].scenario = "URBAN_MICROCELL"
**.ue[16].cellularNic.channelModel[*].scenario = "URBAN_MICROCELL"
**.ue[17].cellularNic.channelModel[*].scenario = "URBAN_MICROCELL"
**.ue[18].cellularNic.channelModel[*].scenario = "URBAN_MICROCELL"
**.ue[19].cellularNic.channelModel[*].scenario = "URBAN_MICROCELL"
**.ue[20].cellularNic.channelModel[*].scenario = "URBAN_MICROCELL"
**.ue[21].cellularNic.channelModel[*].scenario = "URBAN_MICROCELL"
**.ue[22].cellularNic.channelModel[*].scenario = "URBAN_MICROCELL"
**.ue[23].cellularNic.channelModel[*].scenario = "URBAN_MICROCELL"
**.ue[24].cellularNic.channelModel[*].scenario = "URBAN_MICROCELL"
**.ue[25].cellularNic.channelModel[*].scenario = "URBAN_MICROCELL"
**.ue[26].cellularNic.channelModel[*].scenario = "URBAN_MICROCELL"
**.ue[27].cellularNic.channelModel[*].scenario = "URBAN_MICROCELL"
**.ue[28].cellularNic.channelModel[*].scenario = "URBAN_MICROCELL"
**.ue[29].cellularNic.channelModel[*].scenario = "URBAN_MICROCELL"
**.ue[30].cellularNic.channelModel[*].scenario = "URBAN_MICROCELL"
**.ue[31].cellularNic.channelModel[*].scenario = "URBAN_MICROCELL"
**.ue[32].cellularNic.channelModel[*].scenario = "URBAN_MICROCELL"
**.ue[33].cellularNic.channelModel[*].scenario = "URBAN_MICROCELL"
**.ue[34].cellularNic.channelModel[*].scenario = "URBAN_MICROCELL"
**.ue[35].cellularNic.channelModel[*].scenario = "URBAN_MICROCELL"
**.ue[36].cellularNic.channelModel[*].scenario = "URBAN_MICROCELL"
**.ue[37].cellularNic.channelModel[*].scenario = "URBAN_MICROCELL"
**.ue[38].cellularNic.channelModel[*].scenario = "URBAN_MICROCELL"
**.ue[39].cellularNic.channelModel[*].scenario = "URBAN_MICROCELL"
**.ue[40].cellularNic.channelModel[*].scenario = "URBAN_MICROCELL"
**.ue[41].cellularNic.channelModel[*].scenario = "URBAN_MICROCELL"
**.ue[42].cellularNic.channelModel[*].scenario = "URBAN_MICROCELL"
**.ue[43].cellularNic.channelModel[*].scenario = "URBAN_MICROCELL"
**.ue[44].cellularNic.channelModel[*].scenario = "URBAN_MICROCELL"
**.ue[45].cellularNic.channelModel[*].scenario = "URBAN_MICROCELL"
**.ue[46].cellularNic.channelModel[*].scenario = "URBAN_MICROCELL"
**.ue[47].cellularNic.channelModel[*].scenario = "URBAN_MICROCELL"
**.ue[48].cellularNic.channelModel[*].scenario = "URBAN_MICROCELL"
**.ue[49].cellularNic.channelModel[*].scenario = "URBAN_MICROCELL"
**.ue[50].cellularNic.channelModel[*].scenario = "URBAN_MICROCELL"
**.ue[51].cellularNic.channelModel[*].scenario = "URBAN_MICROCELL"
**.ue[52].cellularNic.channelModel[*].scenario = "URBAN_MICROCELL"
**.ue[53].cellularNic.channelModel[*].scenario = "URBAN_MICROCELL"
**.ue[54].cellularNic.channelModel[*].scenario = "URBAN_MICROCELL"
**.ue[55].cellularNic.channelModel[*].scenario = "URBAN_MICROCELL"
**.ue[56].cellularNic.channelModel[*].scenario = "URBAN_MICROCELL"
**.ue[57].cellularNic.channelModel[*].scenario = "URBAN_MICROCELL"
**.ue[58].cellularNic.channelModel[*].scenario = "URBAN_MICROCELL"
**.ue[59].cellularNic.channelModel[*].scenario = "URBAN_MICROCELL"

############### Mobility ###############

# eNodeB
*.eNB0.mobility.initialX = 1000.0m
*.eNB0.mobility.initialY = 200.0m
*.eNB0.mobility.initialZ = 0m
*.eNB0.mobility.initFromDisplayString = false
*.eNB1.mobility.initialX = 2600.0m
*.eNB1.mobility.initialY = 1400.0m
*.eNB1.mobility.initialZ = 0m
*.eNB1.mobility.initFromDisplayString = false
*.eNB2.mobility.initialX = 1800.0m
*.eNB2.mobility.initialY = 3000.0m
*.eNB2.mobility.initialZ = 0m
*.eNB2.mobility.initFromDisplayString = false
*.eNB*.mobility.constraintAreaMaxX = 4000 m
*.eNB*.mobility.constraintAreaMaxY = 4000 m
*.eNB*.mobility.constraintAreaMaxZ = inf m
*.eNB*.mobility.constraintAreaMinX = 0 m
*.eNB*.mobility.constraintAreaMinY = 0 m
*.eNB*.mobility.constraintAreaMinZ = -inf m

# UEs

*.ue[*].mobilityType = "LinearMobility"
*.ue[0].mobility.initialX = ${1122.7846158245914m, 2372.7m, 3619.86m, 2889.26m, 1539.16m, 327.155m, 2197.08m, 2723.18m, 1266.2m, 1210.62m ! Slice}
*.ue[0].mobility.initialY = ${3194.327081810496m, 66.9531m, 1340.18m, 2716.48m, 3943.53m, 2784.72m, 411.043m, 2302.8m, 3966.35m, 1875.99m ! Slice}
*.ue[0].mobility.initialZ = ${0m, 0.0m, 0.0m, 0.0m, 0.0m, 0.0m, 0.0m, 0.0m, 0.0m, 0.0m ! Slice}
*.ue[0].mobility.initFromDisplayString = false
*.ue[1].mobility.initialX = ${1135.7260432152261m, 1447.16m, 1668.76m, 1901.89m, 2258.87m, 2648.6m, 2912.13m, 3345.64m, 3489.32m, 3892.16m ! Slice}
*.ue[1].mobility.initialY = ${3188.8957374771157m, 1808.95m, 49.5609m, 2175.45m, 2247.42m, 1430.87m, 3387.65m, 582.214m, 700.004m, 3675.6m ! Slice}
*.ue[1].mobility.initialZ = ${0m, 0.0m, 0.0m, 0.0m, 0.0m, 0.0m, 0.0m, 0.0m, 0.0m, 0.0m ! Slice}
*.ue[1].mobility.initFromDisplayString = false
*.ue[2].mobility.initialX = ${1130.6984917521513m, 169.795m, 1431.98m, 3724.99m, 700.766m, 2258.22m, 3289.22m, 1722.79m, 1039.36m, 2203.01m ! Slice}
*.ue[2].mobility.initialY = ${3196.015813795974m, 2182.97m, 507.555m, 2569.83m, 2072.26m, 1124.92m, 3072.94m, 2811.96m, 364.313m, 1206.57m ! Slice}
*.ue[2].mobility.initialZ = ${0m, 0.0m, 0.0m, 0.0m, 0.0m, 0.0m, 0.0m, 0.0m, 0.0m, 0.0m ! Slice}
*.ue[2].mobility.initFromDisplayString = false
*.ue[3].mobility.initialX = ${1122.374633393317m, 1130.21m, 2261.44m, 3935.88m, 2720.44m, 574.389m, 991.092m, 3852.48m, 2107.24m, 324.88m ! Slice}
*.ue[3].mobility.initialY = ${3184.2972921569935m, 2243.53m, 796.334m, 1322.03m, 2788.66m, 2450.88m, 885.954m, 2739.74m, 2773.28m, 863.279m ! Slice}
*.ue[3].mobility.initialZ = ${0m, 0.0m, 0.0m, 0.0m, 0.0m, 0.0m, 0.0m, 0.0m, 0.0m, 0.0m ! Slice}
*.ue[3].mobility.initFromDisplayString = false
*.ue[4].mobility.initialX = ${1096.369320463575m, 560.294m, 311.982m, 662.889m, 1545.03m, 2113.64m, 2912.14m, 3590.42m, 3661.71m, 2872.97m ! Slice}
*.ue[4].mobility.initialY = ${3097.4629044583303m, 1044.99m, 2074.66m, 3638.22m, 943.6m, 1318.06m, 3750.03m, 1153.11m, 1627.26m, 2811.48m ! Slice}
*.ue[4].mobility.initialZ = ${0m, 0.0m, 0.0m, 0.0m, 0.0m, 0.0m, 0.0m, 0.0m, 0.0m, 0.0m ! Slice}
*.ue[4].mobility.initFromDisplayString = false
*.ue[5].mobility.initialX = ${1135.8783174353928m, 2288.75m, 3763.75m, 3281.57m, 2026.13m, 197.087m, 1208.79m, 3517.29m, 3849.56m, 2941.49m ! Slice}
*.ue[5].mobility.initialY = ${3191.1547027229017m, 865.067m, 2232.27m, 3997.79m, 1429.8m, 2493.36m, 2634.53m, 2281.59m, 2935.04m, 2937.93m ! Slice}
*.ue[5].mobility.initialZ = ${0m, 0.0m, 0.0m, 0.0m, 0.0m, 0.0m, 0.0m, 0.0m, 0.0m, 0.0m ! Slice}
*.ue[5].mobility.initFromDisplayString = false
*.ue[6].mobility.initialX = ${1134.9942332482628m, 927.557m, 2593.18m, 3412.5m, 1335.6m, 664.759m, 1698.57m, 3967.63m, 1504.52m, 558.65m ! Slice}
*.ue[6].mobility.initialY = ${3175.199358076929m, 1065.8m, 1275.47m, 3120.83m, 2076.27m, 165.536m, 1274.65m, 3882.24m, 1212.77m, 125.787m ! Slice}
*.ue[6].mobility.initialZ = ${0m, 0.0m, 0.0m, 0.0m, 0.0m, 0.0m, 0.0m, 0.0m, 0.0m, 0.0m ! Slice}
*.ue[6].mobility.initFromDisplayString = false
*.ue[7].mobility.initialX = ${1152.0195425427492m, 88.3548m, 2065.23m, 3845.92m, 2279.61m, 404.215m, 2033.22m, 3949.78m, 1947.93m, 833.292m ! Slice}
*.ue[7].mobility.initialY = ${3174.884415661617m, 1664.04m, 1043.13m, 2912.88m, 2629.16m, 519.582m, 2454.8m, 2832.88m, 655.472m, 2388.76m ! Slice}
*.ue[7].mobility.initialZ = ${0m, 0.0m, 0.0m, 0.0m, 0.0m, 0.0m, 0.0m, 0.0m, 0.0m, 0.0m ! Slice}
*.ue[7].mobility.initFromDisplayString = false
*.ue[8].mobility.initialX = ${1112.0427870881201m, 3184.75m, 2526.73m, 1164.05m, 1302.91m, 2650.77m, 3512.16m, 2250.02m, 39.5502m, 1589.83m ! Slice}
*.ue[8].mobility.initialY = ${3183.008244215808m, 1883.52m, 1203.06m, 2832.74m, 1947.97m, 68.9381m, 2064.68m, 3927.0m, 972.81m, 1338.11m ! Slice}
*.ue[8].mobility.initialZ = ${0m, 0.0m, 0.0m, 0.0m, 0.0m, 0.0m, 0.0m, 0.0m, 0.0m, 0.0m ! Slice}
*.ue[8].mobility.initFromDisplayString = false
*.ue[9].mobility.initialX = ${875.7591981835509m, 3673.59m, 64.8731m, 3597.79m, 709.282m, 1143.15m, 3476.15m, 1737.04m, 2259.21m, 2920.36m ! Slice}
*.ue[9].mobility.initialY = ${3150.993093297872m, 2059.77m, 877.534m, 391.632m, 1404.31m, 1971.25m, 2731.13m, 3595.06m, 3156.17m, 2336.78m ! Slice}
*.ue[9].mobility.initialZ = ${0m, 0.0m, 0.0m, 0.0m, 0.0m, 0.0m, 0.0m, 0.0m, 0.0m, 0.0m ! Slice}
*.ue[9].mobility.initFromDisplayString = false
*.ue[10].mobility.initialX = ${1173.9142717225448m, 1769.55m, 3964.32m, 1824.34m, 1092.59m, 3652.1m, 564.445m, 2443.45m, 3007.57m, 331.81m ! Slice}
*.ue[10].mobility.initialY = ${3009.1488951449974m, 964.758m, 1016.48m, 2537.98m, 3243.44m, 803.498m, 1632.07m, 3757.56m, 2473.39m, 259.455m ! Slice}
*.ue[10].mobility.initialZ = ${0m, 0.0m, 0.0m, 0.0m, 0.0m, 0.0m, 0.0m, 0.0m, 0.0m, 0.0m ! Slice}
*.ue[10].mobility.initFromDisplayString = false
*.ue[11].mobility.initialX = ${1163.7723560677978m, 331.59m, 1261.88m, 2524.97m, 2950.99m, 3777.71m, 2713.61m, 2013.92m, 964.063m, 666.48m ! Slice}
*.ue[11].mobility.initialY = ${3194.448642741844m, 983.829m, 3269.68m, 1305.83m, 263.941m, 1967.36m, 1764.7m, 201.488m, 2593.91m, 1310.9m ! Slice}
*.ue[11].mobility.initialZ = ${0m, 0.0m, 0.0m, 0.0m, 0.0m, 0.0m, 0.0m, 0.0m, 0.0m, 0.0m ! Slice}
*.ue[11].mobility.initFromDisplayString = false
*.ue[12].mobility.initialX = ${1100.4416450114215m, 513.524m, 725.294m, 1707.17m, 3122.31m, 3708.78m, 3289.08m, 2141.93m, 479.589m, 1162.79m ! Slice}
*.ue[12].mobility.initialY = ${3188.559586174555m, 1858.94m, 1086.63m, 3171.89m, 1504.46m, 952.661m, 1976.68m, 3043.47m, 341.388m, 3922.35m ! Slice}
*.ue[12].mobility.initialZ = ${0m, 0.0m, 0.0m, 0.0m, 0.0m, 0.0m, 0.0m, 0.0m, 0.0m, 0.0m ! Slice}
*.ue[12].mobility.initFromDisplayString = false
*.ue[13].mobility.initialX = ${1100.8823717307193m, 1693.2m, 2080.13m, 2442.81m, 3028.47m, 3428.97m, 3815.12m, 3235.0m, 2543.28m, 1889.9m ! Slice}
*.ue[13].mobility.initialY = ${3188.5255924814405m, 1412.02m, 783.302m, 2522.49m, 2020.91m, 87.8647m, 3460.41m, 752.453m, 3076.35m, 1309.33m ! Slice}
*.ue[13].mobility.initialZ = ${0m, 0.0m, 0.0m, 0.0m, 0.0m, 0.0m, 0.0m, 0.0m, 0.0m, 0.0m ! Slice}
*.ue[13].mobility.initFromDisplayString = false
*.ue[14].mobility.initialX = ${1119.4255418660614m, 3195.0m, 2385.01m, 1257.26m, 746.926m, 2268.35m, 3381.08m, 1801.87m, 665.984m, 498.779m ! Slice}
*.ue[14].mobility.initialY = ${3008.0836926095544m, 1444.24m, 2331.16m, 3917.74m, 1053.11m, 1922.43m, 2548.66m, 112.814m, 1945.76m, 3644.39m ! Slice}
*.ue[14].mobility.initialZ = ${0m, 0.0m, 0.0m, 0.0m, 0.0m, 0.0m, 0.0m, 0.0m, 0.0m, 0.0m ! Slice}
*.ue[14].mobility.initFromDisplayString = false
*.ue[15].mobility.initialX = ${1147.0445191746892m, 1083.4m, 3843.16m, 711.432m, 3137.78m, 1539.88m, 1976.19m, 3840.85m, 468.045m, 3549.93m ! Slice}
*.ue[15].mobility.initialY = ${3196.843973372745m, 3923.94m, 2989.92m, 1738.0m, 365.712m, 873.064m, 2048.94m, 2938.65m, 3640.58m, 2339.45m ! Slice}
*.ue[15].mobility.initialZ = ${0m, 0.0m, 0.0m, 0.0m, 0.0m, 0.0m, 0.0m, 0.0m, 0.0m, 0.0m ! Slice}
*.ue[15].mobility.initFromDisplayString = false
*.ue[16].mobility.initialX = ${1165.0997952621576m, 1396.98m, 1905.12m, 2246.01m, 2529.76m, 3071.75m, 3438.78m, 3961.94m, 3626.12m, 3206.73m ! Slice}
*.ue[16].mobility.initialY = ${3188.37283817729m, 1240.9m, 3231.63m, 2005.6m, 641.282m, 2476.76m, 92.7319m, 3698.91m, 239.155m, 3283.12m ! Slice}
*.ue[16].mobility.initialZ = ${0m, 0.0m, 0.0m, 0.0m, 0.0m, 0.0m, 0.0m, 0.0m, 0.0m, 0.0m ! Slice}
*.ue[16].mobility.initFromDisplayString = false
*.ue[17].mobility.initialX = ${1155.4639845923004m, 2771.51m, 1874.34m, 1183.26m, 3000.88m, 2294.52m, 220.563m, 2314.72m, 2313.38m, 1021.16m ! Slice}
*.ue[17].mobility.initialY = ${3309.578569489961m, 2135.29m, 65.8707m, 1841.44m, 3259.64m, 2954.2m, 1615.25m, 42.5997m, 2061.15m, 3093.04m ! Slice}
*.ue[17].mobility.initialZ = ${0m, 0.0m, 0.0m, 0.0m, 0.0m, 0.0m, 0.0m, 0.0m, 0.0m, 0.0m ! Slice}
*.ue[17].mobility.initFromDisplayString = false
*.ue[18].mobility.initialX = ${1155.2928979569547m, 3060.73m, 652.92m, 1277.94m, 3862.64m, 1579.84m, 2095.9m, 2004.23m, 815.677m, 3433.68m ! Slice}
*.ue[18].mobility.initialY = ${3287.91335449865m, 3276.92m, 2222.39m, 1475.1m, 406.699m, 680.828m, 1993.01m, 3521.55m, 3293.06m, 2145.63m ! Slice}
*.ue[18].mobility.initialZ = ${0m, 0.0m, 0.0m, 0.0m, 0.0m, 0.0m, 0.0m, 0.0m, 0.0m, 0.0m ! Slice}
*.ue[18].mobility.initFromDisplayString = false
*.ue[19].mobility.initialX = ${1136.76611704293m, 1078.1m, 2646.15m, 2503.44m, 880.345m, 2475.08m, 3093.35m, 1340.3m, 522.75m, 2014.55m ! Slice}
*.ue[19].mobility.initialY = ${3251.7161080499986m, 1526.75m, 31.4677m, 2300.71m, 3914.02m, 1296.0m, 906.611m, 2458.01m, 3877.01m, 2630.33m ! Slice}
*.ue[19].mobility.initialZ = ${0m, 0.0m, 0.0m, 0.0m, 0.0m, 0.0m, 0.0m, 0.0m, 0.0m, 0.0m ! Slice}
*.ue[19].mobility.initFromDisplayString = false
*.ue[20].mobility.initialX = ${1125.0027253127214m, 2580.21m, 2593.65m, 479.086m, 1764.85m, 3868.83m, 2704.74m, 631.505m, 1501.52m, 3574.79m ! Slice}
*.ue[20].mobility.initialY = ${3229.8242620935525m, 1059.42m, 2944.07m, 1526.54m, 1851.47m, 2787.27m, 1078.19m, 2189.47m, 2595.84m, 287.57m ! Slice}
*.ue[20].mobility.initialZ = ${0m, 0.0m, 0.0m, 0.0m, 0.0m, 0.0m, 0.0m, 0.0m, 0.0m, 0.0m ! Slice}
*.ue[20].mobility.initFromDisplayString = false
*.ue[21].mobility.initialX = ${1079.6124887432488m, 417.982m, 618.27m, 1479.0m, 2544.73m, 2906.96m, 3323.99m, 3651.37m, 2608.85m, 1723.45m ! Slice}
*.ue[21].mobility.initialY = ${3242.758377376242m, 1833.78m, 561.716m, 2205.97m, 3205.0m, 2753.11m, 1865.02m, 47.4852m, 2537.12m, 3335.63m ! Slice}
*.ue[21].mobility.initialZ = ${0m, 0.0m, 0.0m, 0.0m, 0.0m, 0.0m, 0.0m, 0.0m, 0.0m, 0.0m ! Slice}
*.ue[21].mobility.initFromDisplayString = false
*.ue[22].mobility.initialX = ${1154.7135509478617m, 1572.13m, 3532.16m, 1301.84m, 2490.24m, 2042.78m, 141.974m, 3831.1m, 892.289m, 1367.44m ! Slice}
*.ue[22].mobility.initialY = ${3287.793492480936m, 2751.89m, 2281.47m, 1612.65m, 831.736m, 100.953m, 431.714m, 1290.63m, 1921.63m, 2380.52m ! Slice}
*.ue[22].mobility.initialZ = ${0m, 0.0m, 0.0m, 0.0m, 0.0m, 0.0m, 0.0m, 0.0m, 0.0m, 0.0m ! Slice}
*.ue[22].mobility.initFromDisplayString = false
*.ue[23].mobility.initialX = ${1123.211493284961m, 1736.89m, 2434.7m, 3187.17m, 3831.94m, 3699.18m, 2972.06m, 2524.68m, 1979.46m, 1998.21m ! Slice}
*.ue[23].mobility.initialY = ${3305.933584801456m, 1592.47m, 1918.06m, 2324.57m, 856.084m, 2545.84m, 1592.86m, 610.254m, 2949.73m, 2859.23m ! Slice}
*.ue[23].mobility.initialZ = ${0m, 0.0m, 0.0m, 0.0m, 0.0m, 0.0m, 0.0m, 0.0m, 0.0m, 0.0m ! Slice}
*.ue[23].mobility.initFromDisplayString = false
*.ue[24].mobility.initialX = ${1194.1233093554406m, 2272.38m, 3641.13m, 2656.49m, 475.325m, 1300.71m, 2293.66m, 3812.03m, 2056.65m, 1019.09m ! Slice}
*.ue[24].mobility.initialY = ${3231.3735928636834m, 1110.98m, 1755.76m, 2728.87m, 1782.91m, 2920.22m, 1337.08m, 2617.22m, 1916.1m, 119.588m ! Slice}
*.ue[24].mobility.initialZ = ${0m, 0.0m, 0.0m, 0.0m, 0.0m, 0.0m, 0.0m, 0.0m, 0.0m, 0.0m ! Slice}
*.ue[24].mobility.initFromDisplayString = false
*.ue[25].mobility.initialX = ${1193.5919332652952m, 673.279m, 2053.48m, 2295.76m, 655.352m, 1308.01m, 2590.31m, 3148.09m, 1665.57m, 1083.26m ! Slice}
*.ue[25].mobility.initialY = ${3223.7478824289487m, 3342.85m, 2227.19m, 778.591m, 1926.55m, 3393.73m, 3433.66m, 1950.65m, 586.247m, 1427.42m ! Slice}
*.ue[25].mobility.initialZ = ${0m, 0.0m, 0.0m, 0.0m, 0.0m, 0.0m, 0.0m, 0.0m, 0.0m, 0.0m ! Slice}
*.ue[25].mobility.initFromDisplayString = false
*.ue[26].mobility.initialX = ${1111.1220319167328m, 2975.31m, 2184.5m, 858.906m, 1796.38m, 2726.06m, 750.091m, 3150.35m, 2776.03m, 571.722m ! Slice}
*.ue[26].mobility.initialY = ${3237.0052815195418m, 2030.1m, 1534.94m, 1055.33m, 147.021m, 1023.03m, 1878.48m, 3252.01m, 3999.58m, 3162.55m ! Slice}
*.ue[26].mobility.initialZ = ${0m, 0.0m, 0.0m, 0.0m, 0.0m, 0.0m, 0.0m, 0.0m, 0.0m, 0.0m ! Slice}
*.ue[26].mobility.initFromDisplayString = false
*.ue[27].mobility.initialX = ${1133.4751703073737m, 1827.83m, 3506.15m, 2146.9m, 715.806m, 1892.69m, 3944.57m, 2604.1m, 528.295m, 3279.97m ! Slice}
*.ue[27].mobility.initialY = ${3282.6543879248948m, 3662.74m, 3359.54m, 2168.42m, 783.142m, 77.4227m, 1200.62m, 1995.07m, 3131.36m, 2668.12m ! Slice}
*.ue[27].mobility.initialZ = ${0m, 0.0m, 0.0m, 0.0m, 0.0m, 0.0m, 0.0m, 0.0m, 0.0m, 0.0m ! Slice}
*.ue[27].mobility.initFromDisplayString = false