[General]
sim-time-limit = 10s

############### Statistics ###############
output-scalar-file = ${resultdir}/${configname}/${repetition}.sca
output-vector-file = ${resultdir}/${configname}/${repetition}.vec
**.vector-recording = false
seed-set = ${repetition}

############### Resource Blocks ###############
**.numRbDl = 6
**.numRbUl = 6
**.binder.numBands = 6 # this value should be kept equal to the number of RBs

[Config Teste]
network = networks.UrbanMacro
sim-time-limit = 10s
repeat = 10
seed-set = ${repetition}
num-rngs = 2
seed-1-mt = 123

output-scalar-file = ${resultdir}/${configname}/${sched}-${repetition}.sca
output-vector-file = ${resultdir}/${configname}/${sched}-${repetition}.vec
**.vector-recording = false

############### Micro Cell ###############
**.microCell.cellInfo.microCell = true

############### Transmission Power ###############
**.ueTxPower = 24
**.eNodeBTxPower = 46
**.microTxPower = 30

############### UEs ###############
**.numUe = 30

# Conecting UEs to eNodeB
**.ue[0].macCellId = 1
**.ue[0].masterId = 1
**.ue[1].macCellId = 1
**.ue[1].masterId = 1
**.ue[2].macCellId = 1
**.ue[2].masterId = 1
**.ue[3].macCellId = 1
**.ue[3].masterId = 1
**.ue[4].macCellId = 1
**.ue[4].masterId = 1
**.ue[5].macCellId = 1
**.ue[5].masterId = 1
**.ue[6].macCellId = 1
**.ue[6].masterId = 1
**.ue[7].macCellId = 1
**.ue[7].masterId = 1
**.ue[8].macCellId = 1
**.ue[8].masterId = 1
**.ue[9].macCellId = 2
**.ue[9].masterId = 2
**.ue[10].macCellId = 2
**.ue[10].masterId = 2
**.ue[11].macCellId = 2
**.ue[11].masterId = 2
**.ue[12].macCellId = 2
**.ue[12].masterId = 2
**.ue[13].macCellId = 2
**.ue[13].masterId = 2
**.ue[14].macCellId = 2
**.ue[14].masterId = 2
**.ue[15].macCellId = 2
**.ue[15].masterId = 2
**.ue[16].macCellId = 2
**.ue[16].masterId = 2
**.ue[17].macCellId = 2
**.ue[17].masterId = 2
**.ue[18].macCellId = 2
**.ue[18].masterId = 2
**.ue[19].macCellId = 2
**.ue[19].masterId = 2
**.ue[20].macCellId = 2
**.ue[20].masterId = 2
**.ue[21].macCellId = 2
**.ue[21].masterId = 2
**.ue[22].macCellId = 2
**.ue[22].masterId = 2
**.ue[23].macCellId = 2
**.ue[23].masterId = 2
**.ue[24].macCellId = 2
**.ue[24].masterId = 2
**.ue[25].macCellId = 2
**.ue[25].masterId = 2
**.ue[26].macCellId = 2
**.ue[26].masterId = 2
**.ue[27].macCellId = 2
**.ue[27].masterId = 2
**.ue[28].macCellId = 2
**.ue[28].masterId = 2
**.ue[29].macCellId = 2
**.ue[29].masterId = 2

# Scheduler
**.schedulingDisciplineUl = ${sched= "MAXCI", "DRR", "PF", "ALLOCATOR_BESTFIT"}
**.schedulingDisciplineDl = ${sched}

############### Mobility ###############

# eNodeB
**.eNB.lteNic.channelModel.scenario = "URBAN_MACROCELL"

# Microcell
**.microCell.lteNic.channelModel.scenario = "URBAN_MICROCELL"

# UEs
**.ue[0].lteNic.channelModel.scenario = "URBAN_MACROCELL"
**.ue[1].lteNic.channelModel.scenario = "URBAN_MACROCELL"
**.ue[2].lteNic.channelModel.scenario = "URBAN_MACROCELL"
**.ue[3].lteNic.channelModel.scenario = "URBAN_MACROCELL"
**.ue[4].lteNic.channelModel.scenario = "URBAN_MACROCELL"
**.ue[5].lteNic.channelModel.scenario = "URBAN_MACROCELL"
**.ue[6].lteNic.channelModel.scenario = "URBAN_MACROCELL"
**.ue[7].lteNic.channelModel.scenario = "URBAN_MACROCELL"
**.ue[8].lteNic.channelModel.scenario = "URBAN_MACROCELL"
**.ue[9].lteNic.channelModel.scenario = "URBAN_MICROCELL"
**.ue[10].lteNic.channelModel.scenario = "URBAN_MICROCELL"
**.ue[11].lteNic.channelModel.scenario = "URBAN_MICROCELL"
**.ue[12].lteNic.channelModel.scenario = "URBAN_MICROCELL"
**.ue[13].lteNic.channelModel.scenario = "URBAN_MICROCELL"
**.ue[14].lteNic.channelModel.scenario = "URBAN_MICROCELL"
**.ue[15].lteNic.channelModel.scenario = "URBAN_MICROCELL"
**.ue[16].lteNic.channelModel.scenario = "URBAN_MICROCELL"
**.ue[17].lteNic.channelModel.scenario = "URBAN_MICROCELL"
**.ue[18].lteNic.channelModel.scenario = "URBAN_MICROCELL"
**.ue[19].lteNic.channelModel.scenario = "URBAN_MICROCELL"
**.ue[20].lteNic.channelModel.scenario = "URBAN_MICROCELL"
**.ue[21].lteNic.channelModel.scenario = "URBAN_MICROCELL"
**.ue[22].lteNic.channelModel.scenario = "URBAN_MICROCELL"
**.ue[23].lteNic.channelModel.scenario = "URBAN_MICROCELL"
**.ue[24].lteNic.channelModel.scenario = "URBAN_MICROCELL"
**.ue[25].lteNic.channelModel.scenario = "URBAN_MICROCELL"
**.ue[26].lteNic.channelModel.scenario = "URBAN_MICROCELL"
**.ue[27].lteNic.channelModel.scenario = "URBAN_MICROCELL"
**.ue[28].lteNic.channelModel.scenario = "URBAN_MICROCELL"
**.ue[29].lteNic.channelModel.scenario = "URBAN_MICROCELL"

############### Mobility ###############

# eNodeB
*.eNB.mobility.initialX = 500m
*.eNB.mobility.initialY = 500m
*.eNB.mobility.initialZ = 0m
*.eNB.mobility.initFromDisplayString = false
*.eNB.mobility.constraintAreaMaxX = inf m
*.eNB.mobility.constraintAreaMaxY = inf m
*.eNB.mobility.constraintAreaMaxZ = inf m
*.eNB.mobility.constraintAreaMinX = -inf m
*.eNB.mobility.constraintAreaMinY = -inf m
*.eNB.mobility.constraintAreaMinZ = -inf m

# UEs

*.ue[*].mobilityType = "StationaryMobility"
*.ue[0].mobility.initialX = 419.12325912955396m
*.ue[0].mobility.initialY = 481.2794571150647m
*.ue[0].mobility.initialZ = 0.0m
*.ue[1].mobility.initialX = 469.06595025706173m
*.ue[1].mobility.initialY = 820.3356365480101m
*.ue[1].mobility.initialZ = 0.0m
*.ue[2].mobility.initialX = 293.530793246511m
*.ue[2].mobility.initialY = 810.2160826362119m
*.ue[2].mobility.initialZ = 0.0m
*.ue[3].mobility.initialX = 350.21441324400723m
*.ue[3].mobility.initialY = 377.8164832547805m
*.ue[3].mobility.initialZ = 0.0m
*.ue[4].mobility.initialX = 330.2021532150791m
*.ue[4].mobility.initialY = 205.9400578242844m
*.ue[4].mobility.initialZ = 0.0m
*.ue[5].mobility.initialX = 354.7551309528297m
*.ue[5].mobility.initialY = 241.71270272204328m
*.ue[5].mobility.initialZ = 0.0m
*.ue[6].mobility.initialX = 239.34794250315213m
*.ue[6].mobility.initialY = 189.71575074691077m
*.ue[6].mobility.initialZ = 0.0m
*.ue[7].mobility.initialX = 214.32574161938612m
*.ue[7].mobility.initialY = 195.82339653406126m
*.ue[7].mobility.initialZ = 0.0m
*.ue[8].mobility.initialX = 502.9378011556153m
*.ue[8].mobility.initialY = 216.664214400481m
*.ue[8].mobility.initialZ = 0.0m
*.ue[9].mobility.initialX = 746.1902138313051m
*.ue[9].mobility.initialY = 724.32539783289m
*.ue[9].mobility.initialZ = 0.0m
*.ue[10].mobility.initialX = 712.6804351525707m
*.ue[10].mobility.initialY = 710.2657973870564m
*.ue[10].mobility.initialZ = 0.0m
*.ue[11].mobility.initialX = 750.8568744938651m
*.ue[11].mobility.initialY = 694.0281492348498m
*.ue[11].mobility.initialZ = 0.0m
*.ue[12].mobility.initialX = 704.053834864235m
*.ue[12].mobility.initialY = 686.8027360462274m
*.ue[12].mobility.initialZ = 0.0m
*.ue[13].mobility.initialX = 767.0611038459083m
*.ue[13].mobility.initialY = 706.502981643468m
*.ue[13].mobility.initialZ = 0.0m
*.ue[14].mobility.initialX = 773.1187365995919m
*.ue[14].mobility.initialY = 678.1192908335709m
*.ue[14].mobility.initialZ = 0.0m
*.ue[15].mobility.initialX = 686.3459677407317m
*.ue[15].mobility.initialY = 727.5953868195163m
*.ue[15].mobility.initialZ = 0.0m
*.ue[16].mobility.initialX = 650.2525741538291m
*.ue[16].mobility.initialY = 664.9278584460166m
*.ue[16].mobility.initialZ = 0.0m
*.ue[17].mobility.initialX = 711.7790762165381m
*.ue[17].mobility.initialY = 657.3552910031539m
*.ue[17].mobility.initialZ = 0.0m
*.ue[18].mobility.initialX = 765.7418427752316m
*.ue[18].mobility.initialY = 637.1081060826058m
*.ue[18].mobility.initialZ = 0.0m
*.ue[19].mobility.initialX = 696.4561580797512m
*.ue[19].mobility.initialY = 694.5149259914808m
*.ue[19].mobility.initialZ = 0.0m
*.ue[20].mobility.initialX = 693.1958834000159m
*.ue[20].mobility.initialY = 674.9265633590305m
*.ue[20].mobility.initialZ = 0.0m
*.ue[21].mobility.initialX = 726.6130699863504m
*.ue[21].mobility.initialY = 707.4856078347966m
*.ue[21].mobility.initialZ = 0.0m
*.ue[22].mobility.initialX = 766.7579630683904m
*.ue[22].mobility.initialY = 674.309688678418m
*.ue[22].mobility.initialZ = 0.0m
*.ue[23].mobility.initialX = 678.619238052525m
*.ue[23].mobility.initialY = 663.1506753918073m
*.ue[23].mobility.initialZ = 0.0m
*.ue[24].mobility.initialX = 732.8473955467678m
*.ue[24].mobility.initialY = 713.5785551948568m
*.ue[24].mobility.initialZ = 0.0m
*.ue[25].mobility.initialX = 720.4313468649668m
*.ue[25].mobility.initialY = 693.915303930252m
*.ue[25].mobility.initialZ = 0.0m
*.ue[26].mobility.initialX = 705.7468091099873m
*.ue[26].mobility.initialY = 710.9817533487827m
*.ue[26].mobility.initialZ = 0.0m
*.ue[27].mobility.initialX = 746.670304809541m
*.ue[27].mobility.initialY = 698.466934178811m
*.ue[27].mobility.initialZ = 0.0m
*.ue[28].mobility.initialX = 746.838339943608m
*.ue[28].mobility.initialY = 691.9230854556109m
*.ue[28].mobility.initialZ = 0.0m
*.ue[29].mobility.initialX = 705.1378893177866m
*.ue[29].mobility.initialY = 668.3972081859557m
*.ue[29].mobility.initialZ = 0.0m
*.ue[*].mobility.initFromDisplayString = false
*.ue[*].mobility.constraintAreaMaxX = inf m
*.ue[*].mobility.constraintAreaMaxY = inf m
*.ue[*].mobility.constraintAreaMaxZ = inf m
*.ue[*].mobility.constraintAreaMinX = -inf m
*.ue[*].mobility.constraintAreaMinY = -inf m
*.ue[*].mobility.constraintAreaMinZ = -inf m

# Microcell
*.microCell.mobility.initialX = 711.4515923921631m
*.microCell.mobility.initialY = 669.8418901148484m
*.microCell.mobility.initialZ = 0m
*.microCell.mobility.initFromDisplayString = false
*.microCell.mobility.constraintAreaMaxX = inf m
*.microCell.mobility.constraintAreaMaxY = inf m
*.microCell.mobility.constraintAreaMaxZ = inf m
*.microCell.mobility.constraintAreaMinX = -inf m
*.microCell.mobility.constraintAreaMinY = -inf m
*.microCell.mobility.constraintAreaMinZ = -inf m

############### Apps ###############
*.ue[*].numApps = 2
*.server.numApps = 2 * 30 * 1

# VoIP UL
*.ue[*].app[0].typename="VoIPSender"
*.ue[*].app[0].PacketSize = default
*.ue[*].app[0].destAddress = "server"
*.ue[*].app[0].destPort = 4000 + ancestorIndex(1) #Pega o valor id de ue
*.ue[*].app[0].localPort = 4088
*.ue[*].app[0].startTime = 0.01s
*.server.app[0..29].typename="VoIPReceiver"
*.server.app[0..29].localPort = 4000 + ancestorIndex(0)

# VoIP DL
*.server.app[30..59].typename="VoIPSender"
*.server.app[30..59].PacketSize = default
*.server.app[30..59].destAddress = "ue[" + string(ancestorIndex(0) - 30) + "]"
*.server.app[30..59].destPort = 3000
*.server.app[30..59].localPort = 3088 + ancestorIndex(0)
*.server.app[30..59].startTime = 0.01s
*.ue[*].app[1].typename="VoIPReceiver"
*.ue[*].app[1].localPort = 3000

############### Channel Control ###############
**.propagationModel = "LogNormalShadow"
