[General]
sim-time-limit = 10s

############### Statistics ###############
output-scalar-file = ${resultdir}/${configname}/${repetition}.sca
output-vector-file = ${resultdir}/${configname}/${repetition}.vec
**.vector-recording = false
seed-set = ${repetition}

############### Resource Blocks ###############
**.numRbDl = 6
**.numRbUl = 6
**.binder.numBands = 6 # this value should be kept equal to the number of RBs

[Config eNB2_Base]
network = networks.UrbanMacro7
sim-time-limit = 10s
repeat = 10
seed-set = ${repetition}
num-rngs = 2
seed-1-mt = 123

output-scalar-file = ${resultdir}/${configname}/${sched}-${repetition}.sca
output-vector-file = ${resultdir}/${configname}/${sched}-${repetition}.vec
**.vector-recording = false

############### Micro Cell ###############
**.microCell0.cellInfo.microCell = true
**.microCell1.cellInfo.microCell = true
**.microCell2.cellInfo.microCell = true
**.microCell3.cellInfo.microCell = true
**.microCell4.cellInfo.microCell = true
**.microCell5.cellInfo.microCell = true
**.microCell6.cellInfo.microCell = true

############### Transmission Power ###############
**.ueTxPower = 24
**.eNodeBTxPower = 46
**.microTxPower = 30

############### UEs ###############
**.numUe = 60

# Conecting UEs to eNodeB
**.ue0[0].macCellId = 1
**.ue0[0].masterId = 1
**.ue0[1].macCellId = 1
**.ue0[1].masterId = 1
**.ue0[2].macCellId = 1
**.ue0[2].masterId = 1
**.ue0[3].macCellId = 1
**.ue0[3].masterId = 1
**.ue0[4].macCellId = 1
**.ue0[4].masterId = 1
**.ue0[5].macCellId = 1
**.ue0[5].masterId = 1
**.ue0[6].macCellId = 1
**.ue0[6].masterId = 1
**.ue0[7].macCellId = 1
**.ue0[7].masterId = 1
**.ue0[8].macCellId = 1
**.ue0[8].masterId = 1
**.ue0[9].macCellId = 1
**.ue0[9].masterId = 1
**.ue0[10].macCellId = 1
**.ue0[10].masterId = 1
**.ue0[11].macCellId = 1
**.ue0[11].masterId = 1
**.ue0[12].macCellId = 1
**.ue0[12].masterId = 1
**.ue0[13].macCellId = 1
**.ue0[13].masterId = 1
**.ue0[14].macCellId = 1
**.ue0[14].masterId = 1
**.ue0[15].macCellId = 1
**.ue0[15].masterId = 1
**.ue0[16].macCellId = 1
**.ue0[16].masterId = 1
**.ue0[17].macCellId = 1
**.ue0[17].masterId = 1
**.ue0[18].macCellId = 1
**.ue0[18].masterId = 1
**.ue0[19].macCellId = 1
**.ue0[19].masterId = 1
**.ue0[20].macCellId = 1
**.ue0[20].masterId = 1
**.ue0[21].macCellId = 1
**.ue0[21].masterId = 1
**.ue0[22].macCellId = 8
**.ue0[22].masterId = 8
**.ue0[23].macCellId = 8
**.ue0[23].masterId = 8
**.ue0[24].macCellId = 8
**.ue0[24].masterId = 8
**.ue0[25].macCellId = 8
**.ue0[25].masterId = 8
**.ue0[26].macCellId = 8
**.ue0[26].masterId = 8
**.ue0[27].macCellId = 8
**.ue0[27].masterId = 8
**.ue0[28].macCellId = 8
**.ue0[28].masterId = 8
**.ue0[29].macCellId = 8
**.ue0[29].masterId = 8
**.ue0[30].macCellId = 8
**.ue0[30].masterId = 8
**.ue0[31].macCellId = 8
**.ue0[31].masterId = 8
**.ue0[32].macCellId = 8
**.ue0[32].masterId = 8
**.ue0[33].macCellId = 8
**.ue0[33].masterId = 8
**.ue0[34].macCellId = 8
**.ue0[34].masterId = 8
**.ue0[35].macCellId = 8
**.ue0[35].masterId = 8
**.ue0[36].macCellId = 8
**.ue0[36].masterId = 8
**.ue0[37].macCellId = 8
**.ue0[37].masterId = 8
**.ue0[38].macCellId = 8
**.ue0[38].masterId = 8
**.ue0[39].macCellId = 8
**.ue0[39].masterId = 8
**.ue0[40].macCellId = 8
**.ue0[40].masterId = 8
**.ue0[41].macCellId = 8
**.ue0[41].masterId = 8
**.ue0[42].macCellId = 8
**.ue0[42].masterId = 8
**.ue0[43].macCellId = 8
**.ue0[43].masterId = 8
**.ue0[44].macCellId = 8
**.ue0[44].masterId = 8
**.ue0[45].macCellId = 8
**.ue0[45].masterId = 8
**.ue0[46].macCellId = 8
**.ue0[46].masterId = 8
**.ue0[47].macCellId = 8
**.ue0[47].masterId = 8
**.ue0[48].macCellId = 8
**.ue0[48].masterId = 8
**.ue0[49].macCellId = 8
**.ue0[49].masterId = 8
**.ue0[50].macCellId = 8
**.ue0[50].masterId = 8
**.ue0[51].macCellId = 8
**.ue0[51].masterId = 8
**.ue0[52].macCellId = 8
**.ue0[52].masterId = 8
**.ue0[53].macCellId = 8
**.ue0[53].masterId = 8
**.ue0[54].macCellId = 8
**.ue0[54].masterId = 8
**.ue0[55].macCellId = 8
**.ue0[55].masterId = 8
**.ue0[56].macCellId = 8
**.ue0[56].masterId = 8
**.ue0[57].macCellId = 8
**.ue0[57].masterId = 8
**.ue0[58].macCellId = 8
**.ue0[58].masterId = 8
**.ue0[59].macCellId = 8
**.ue0[59].masterId = 8
**.ue1[0].macCellId = 2
**.ue1[0].masterId = 2
**.ue1[1].macCellId = 2
**.ue1[1].masterId = 2
**.ue1[2].macCellId = 2
**.ue1[2].masterId = 2
**.ue1[3].macCellId = 2
**.ue1[3].masterId = 2
**.ue1[4].macCellId = 2
**.ue1[4].masterId = 2
**.ue1[5].macCellId = 2
**.ue1[5].masterId = 2
**.ue1[6].macCellId = 2
**.ue1[6].masterId = 2
**.ue1[7].macCellId = 2
**.ue1[7].masterId = 2
**.ue1[8].macCellId = 2
**.ue1[8].masterId = 2
**.ue1[9].macCellId = 2
**.ue1[9].masterId = 2
**.ue1[10].macCellId = 2
**.ue1[10].masterId = 2
**.ue1[11].macCellId = 2
**.ue1[11].masterId = 2
**.ue1[12].macCellId = 2
**.ue1[12].masterId = 2
**.ue1[13].macCellId = 2
**.ue1[13].masterId = 2
**.ue1[14].macCellId = 2
**.ue1[14].masterId = 2
**.ue1[15].macCellId = 2
**.ue1[15].masterId = 2
**.ue1[16].macCellId = 2
**.ue1[16].masterId = 2
**.ue1[17].macCellId = 2
**.ue1[17].masterId = 2
**.ue1[18].macCellId = 2
**.ue1[18].masterId = 2
**.ue1[19].macCellId = 2
**.ue1[19].masterId = 2
**.ue1[20].macCellId = 2
**.ue1[20].masterId = 2
**.ue1[21].macCellId = 9
**.ue1[21].masterId = 9
**.ue1[22].macCellId = 9
**.ue1[22].masterId = 9
**.ue1[23].macCellId = 9
**.ue1[23].masterId = 9
**.ue1[24].macCellId = 9
**.ue1[24].masterId = 9
**.ue1[25].macCellId = 9
**.ue1[25].masterId = 9
**.ue1[26].macCellId = 9
**.ue1[26].masterId = 9
**.ue1[27].macCellId = 9
**.ue1[27].masterId = 9
**.ue1[28].macCellId = 9
**.ue1[28].masterId = 9
**.ue1[29].macCellId = 9
**.ue1[29].masterId = 9
**.ue1[30].macCellId = 9
**.ue1[30].masterId = 9
**.ue1[31].macCellId = 9
**.ue1[31].masterId = 9
**.ue1[32].macCellId = 9
**.ue1[32].masterId = 9
**.ue1[33].macCellId = 9
**.ue1[33].masterId = 9
**.ue1[34].macCellId = 9
**.ue1[34].masterId = 9
**.ue1[35].macCellId = 9
**.ue1[35].masterId = 9
**.ue1[36].macCellId = 9
**.ue1[36].masterId = 9
**.ue1[37].macCellId = 9
**.ue1[37].masterId = 9
**.ue1[38].macCellId = 9
**.ue1[38].masterId = 9
**.ue1[39].macCellId = 9
**.ue1[39].masterId = 9
**.ue1[40].macCellId = 9
**.ue1[40].masterId = 9
**.ue1[41].macCellId = 9
**.ue1[41].masterId = 9
**.ue1[42].macCellId = 9
**.ue1[42].masterId = 9
**.ue1[43].macCellId = 9
**.ue1[43].masterId = 9
**.ue1[44].macCellId = 9
**.ue1[44].masterId = 9
**.ue1[45].macCellId = 9
**.ue1[45].masterId = 9
**.ue1[46].macCellId = 9
**.ue1[46].masterId = 9
**.ue1[47].macCellId = 9
**.ue1[47].masterId = 9
**.ue1[48].macCellId = 9
**.ue1[48].masterId = 9
**.ue1[49].macCellId = 9
**.ue1[49].masterId = 9
**.ue1[50].macCellId = 9
**.ue1[50].masterId = 9
**.ue1[51].macCellId = 9
**.ue1[51].masterId = 9
**.ue1[52].macCellId = 9
**.ue1[52].masterId = 9
**.ue1[53].macCellId = 9
**.ue1[53].masterId = 9
**.ue1[54].macCellId = 9
**.ue1[54].masterId = 9
**.ue1[55].macCellId = 9
**.ue1[55].masterId = 9
**.ue1[56].macCellId = 9
**.ue1[56].masterId = 9
**.ue1[57].macCellId = 9
**.ue1[57].masterId = 9
**.ue1[58].macCellId = 9
**.ue1[58].masterId = 9
**.ue1[59].macCellId = 9
**.ue1[59].masterId = 9
**.ue2[0].macCellId = 3
**.ue2[0].masterId = 3
**.ue2[1].macCellId = 3
**.ue2[1].masterId = 3
**.ue2[2].macCellId = 3
**.ue2[2].masterId = 3
**.ue2[3].macCellId = 3
**.ue2[3].masterId = 3
**.ue2[4].macCellId = 3
**.ue2[4].masterId = 3
**.ue2[5].macCellId = 3
**.ue2[5].masterId = 3
**.ue2[6].macCellId = 3
**.ue2[6].masterId = 3
**.ue2[7].macCellId = 3
**.ue2[7].masterId = 3
**.ue2[8].macCellId = 3
**.ue2[8].masterId = 3
**.ue2[9].macCellId = 3
**.ue2[9].masterId = 3
**.ue2[10].macCellId = 3
**.ue2[10].masterId = 3
**.ue2[11].macCellId = 3
**.ue2[11].masterId = 3
**.ue2[12].macCellId = 3
**.ue2[12].masterId = 3
**.ue2[13].macCellId = 3
**.ue2[13].masterId = 3
**.ue2[14].macCellId = 3
**.ue2[14].masterId = 3
**.ue2[15].macCellId = 3
**.ue2[15].masterId = 3
**.ue2[16].macCellId = 3
**.ue2[16].masterId = 3
**.ue2[17].macCellId = 3
**.ue2[17].masterId = 3
**.ue2[18].macCellId = 3
**.ue2[18].masterId = 3
**.ue2[19].macCellId = 10
**.ue2[19].masterId = 10
**.ue2[20].macCellId = 10
**.ue2[20].masterId = 10
**.ue2[21].macCellId = 10
**.ue2[21].masterId = 10
**.ue2[22].macCellId = 10
**.ue2[22].masterId = 10
**.ue2[23].macCellId = 10
**.ue2[23].masterId = 10
**.ue2[24].macCellId = 10
**.ue2[24].masterId = 10
**.ue2[25].macCellId = 10
**.ue2[25].masterId = 10
**.ue2[26].macCellId = 10
**.ue2[26].masterId = 10
**.ue2[27].macCellId = 10
**.ue2[27].masterId = 10
**.ue2[28].macCellId = 10
**.ue2[28].masterId = 10
**.ue2[29].macCellId = 10
**.ue2[29].masterId = 10
**.ue2[30].macCellId = 10
**.ue2[30].masterId = 10
**.ue2[31].macCellId = 10
**.ue2[31].masterId = 10
**.ue2[32].macCellId = 10
**.ue2[32].masterId = 10
**.ue2[33].macCellId = 10
**.ue2[33].masterId = 10
**.ue2[34].macCellId = 10
**.ue2[34].masterId = 10
**.ue2[35].macCellId = 10
**.ue2[35].masterId = 10
**.ue2[36].macCellId = 10
**.ue2[36].masterId = 10
**.ue2[37].macCellId = 10
**.ue2[37].masterId = 10
**.ue2[38].macCellId = 10
**.ue2[38].masterId = 10
**.ue2[39].macCellId = 10
**.ue2[39].masterId = 10
**.ue2[40].macCellId = 10
**.ue2[40].masterId = 10
**.ue2[41].macCellId = 10
**.ue2[41].masterId = 10
**.ue2[42].macCellId = 10
**.ue2[42].masterId = 10
**.ue2[43].macCellId = 10
**.ue2[43].masterId = 10
**.ue2[44].macCellId = 10
**.ue2[44].masterId = 10
**.ue2[45].macCellId = 10
**.ue2[45].masterId = 10
**.ue2[46].macCellId = 10
**.ue2[46].masterId = 10
**.ue2[47].macCellId = 10
**.ue2[47].masterId = 10
**.ue2[48].macCellId = 10
**.ue2[48].masterId = 10
**.ue2[49].macCellId = 10
**.ue2[49].masterId = 10
**.ue2[50].macCellId = 10
**.ue2[50].masterId = 10
**.ue2[51].macCellId = 10
**.ue2[51].masterId = 10
**.ue2[52].macCellId = 10
**.ue2[52].masterId = 10
**.ue2[53].macCellId = 10
**.ue2[53].masterId = 10
**.ue2[54].macCellId = 10
**.ue2[54].masterId = 10
**.ue2[55].macCellId = 10
**.ue2[55].masterId = 10
**.ue2[56].macCellId = 10
**.ue2[56].masterId = 10
**.ue2[57].macCellId = 10
**.ue2[57].masterId = 10
**.ue2[58].macCellId = 10
**.ue2[58].masterId = 10
**.ue2[59].macCellId = 10
**.ue2[59].masterId = 10
**.ue3[0].macCellId = 4
**.ue3[0].masterId = 4
**.ue3[1].macCellId = 4
**.ue3[1].masterId = 4
**.ue3[2].macCellId = 4
**.ue3[2].masterId = 4
**.ue3[3].macCellId = 4
**.ue3[3].masterId = 4
**.ue3[4].macCellId = 4
**.ue3[4].masterId = 4
**.ue3[5].macCellId = 4
**.ue3[5].masterId = 4
**.ue3[6].macCellId = 4
**.ue3[6].masterId = 4
**.ue3[7].macCellId = 4
**.ue3[7].masterId = 4
**.ue3[8].macCellId = 4
**.ue3[8].masterId = 4
**.ue3[9].macCellId = 4
**.ue3[9].masterId = 4
**.ue3[10].macCellId = 4
**.ue3[10].masterId = 4
**.ue3[11].macCellId = 4
**.ue3[11].masterId = 4
**.ue3[12].macCellId = 4
**.ue3[12].masterId = 4
**.ue3[13].macCellId = 4
**.ue3[13].masterId = 4
**.ue3[14].macCellId = 4
**.ue3[14].masterId = 4
**.ue3[15].macCellId = 4
**.ue3[15].masterId = 4
**.ue3[16].macCellId = 4
**.ue3[16].masterId = 4
**.ue3[17].macCellId = 4
**.ue3[17].masterId = 4
**.ue3[18].macCellId = 4
**.ue3[18].masterId = 4
**.ue3[19].macCellId = 4
**.ue3[19].masterId = 4
**.ue3[20].macCellId = 4
**.ue3[20].masterId = 4
**.ue3[21].macCellId = 4
**.ue3[21].masterId = 4
**.ue3[22].macCellId = 4
**.ue3[22].masterId = 4
**.ue3[23].macCellId = 4
**.ue3[23].masterId = 4
**.ue3[24].macCellId = 4
**.ue3[24].masterId = 4
**.ue3[25].macCellId = 11
**.ue3[25].masterId = 11
**.ue3[26].macCellId = 11
**.ue3[26].masterId = 11
**.ue3[27].macCellId = 11
**.ue3[27].masterId = 11
**.ue3[28].macCellId = 11
**.ue3[28].masterId = 11
**.ue3[29].macCellId = 11
**.ue3[29].masterId = 11
**.ue3[30].macCellId = 11
**.ue3[30].masterId = 11
**.ue3[31].macCellId = 11
**.ue3[31].masterId = 11
**.ue3[32].macCellId = 11
**.ue3[32].masterId = 11
**.ue3[33].macCellId = 11
**.ue3[33].masterId = 11
**.ue3[34].macCellId = 11
**.ue3[34].masterId = 11
**.ue3[35].macCellId = 11
**.ue3[35].masterId = 11
**.ue3[36].macCellId = 11
**.ue3[36].masterId = 11
**.ue3[37].macCellId = 11
**.ue3[37].masterId = 11
**.ue3[38].macCellId = 11
**.ue3[38].masterId = 11
**.ue3[39].macCellId = 11
**.ue3[39].masterId = 11
**.ue3[40].macCellId = 11
**.ue3[40].masterId = 11
**.ue3[41].macCellId = 11
**.ue3[41].masterId = 11
**.ue3[42].macCellId = 11
**.ue3[42].masterId = 11
**.ue3[43].macCellId = 11
**.ue3[43].masterId = 11
**.ue3[44].macCellId = 11
**.ue3[44].masterId = 11
**.ue3[45].macCellId = 11
**.ue3[45].masterId = 11
**.ue3[46].macCellId = 11
**.ue3[46].masterId = 11
**.ue3[47].macCellId = 11
**.ue3[47].masterId = 11
**.ue3[48].macCellId = 11
**.ue3[48].masterId = 11
**.ue3[49].macCellId = 11
**.ue3[49].masterId = 11
**.ue3[50].macCellId = 11
**.ue3[50].masterId = 11
**.ue3[51].macCellId = 11
**.ue3[51].masterId = 11
**.ue3[52].macCellId = 11
**.ue3[52].masterId = 11
**.ue3[53].macCellId = 11
**.ue3[53].masterId = 11
**.ue3[54].macCellId = 11
**.ue3[54].masterId = 11
**.ue3[55].macCellId = 11
**.ue3[55].masterId = 11
**.ue3[56].macCellId = 11
**.ue3[56].masterId = 11
**.ue3[57].macCellId = 11
**.ue3[57].masterId = 11
**.ue3[58].macCellId = 11
**.ue3[58].masterId = 11
**.ue3[59].macCellId = 11
**.ue3[59].masterId = 11
**.ue4[0].macCellId = 5
**.ue4[0].masterId = 5
**.ue4[1].macCellId = 5
**.ue4[1].masterId = 5
**.ue4[2].macCellId = 5
**.ue4[2].masterId = 5
**.ue4[3].macCellId = 5
**.ue4[3].masterId = 5
**.ue4[4].macCellId = 5
**.ue4[4].masterId = 5
**.ue4[5].macCellId = 5
**.ue4[5].masterId = 5
**.ue4[6].macCellId = 5
**.ue4[6].masterId = 5
**.ue4[7].macCellId = 5
**.ue4[7].masterId = 5
**.ue4[8].macCellId = 5
**.ue4[8].masterId = 5
**.ue4[9].macCellId = 5
**.ue4[9].masterId = 5
**.ue4[10].macCellId = 5
**.ue4[10].masterId = 5
**.ue4[11].macCellId = 5
**.ue4[11].masterId = 5
**.ue4[12].macCellId = 5
**.ue4[12].masterId = 5
**.ue4[13].macCellId = 5
**.ue4[13].masterId = 5
**.ue4[14].macCellId = 5
**.ue4[14].masterId = 5
**.ue4[15].macCellId = 12
**.ue4[15].masterId = 12
**.ue4[16].macCellId = 12
**.ue4[16].masterId = 12
**.ue4[17].macCellId = 12
**.ue4[17].masterId = 12
**.ue4[18].macCellId = 12
**.ue4[18].masterId = 12
**.ue4[19].macCellId = 12
**.ue4[19].masterId = 12
**.ue4[20].macCellId = 12
**.ue4[20].masterId = 12
**.ue4[21].macCellId = 12
**.ue4[21].masterId = 12
**.ue4[22].macCellId = 12
**.ue4[22].masterId = 12
**.ue4[23].macCellId = 12
**.ue4[23].masterId = 12
**.ue4[24].macCellId = 12
**.ue4[24].masterId = 12
**.ue4[25].macCellId = 12
**.ue4[25].masterId = 12
**.ue4[26].macCellId = 12
**.ue4[26].masterId = 12
**.ue4[27].macCellId = 12
**.ue4[27].masterId = 12
**.ue4[28].macCellId = 12
**.ue4[28].masterId = 12
**.ue4[29].macCellId = 12
**.ue4[29].masterId = 12
**.ue4[30].macCellId = 12
**.ue4[30].masterId = 12
**.ue4[31].macCellId = 12
**.ue4[31].masterId = 12
**.ue4[32].macCellId = 12
**.ue4[32].masterId = 12
**.ue4[33].macCellId = 12
**.ue4[33].masterId = 12
**.ue4[34].macCellId = 12
**.ue4[34].masterId = 12
**.ue4[35].macCellId = 12
**.ue4[35].masterId = 12
**.ue4[36].macCellId = 12
**.ue4[36].masterId = 12
**.ue4[37].macCellId = 12
**.ue4[37].masterId = 12
**.ue4[38].macCellId = 12
**.ue4[38].masterId = 12
**.ue4[39].macCellId = 12
**.ue4[39].masterId = 12
**.ue4[40].macCellId = 12
**.ue4[40].masterId = 12
**.ue4[41].macCellId = 12
**.ue4[41].masterId = 12
**.ue4[42].macCellId = 12
**.ue4[42].masterId = 12
**.ue4[43].macCellId = 12
**.ue4[43].masterId = 12
**.ue4[44].macCellId = 12
**.ue4[44].masterId = 12
**.ue4[45].macCellId = 12
**.ue4[45].masterId = 12
**.ue4[46].macCellId = 12
**.ue4[46].masterId = 12
**.ue4[47].macCellId = 12
**.ue4[47].masterId = 12
**.ue4[48].macCellId = 12
**.ue4[48].masterId = 12
**.ue4[49].macCellId = 12
**.ue4[49].masterId = 12
**.ue4[50].macCellId = 12
**.ue4[50].masterId = 12
**.ue4[51].macCellId = 12
**.ue4[51].masterId = 12
**.ue4[52].macCellId = 12
**.ue4[52].masterId = 12
**.ue4[53].macCellId = 12
**.ue4[53].masterId = 12
**.ue4[54].macCellId = 12
**.ue4[54].masterId = 12
**.ue4[55].macCellId = 12
**.ue4[55].masterId = 12
**.ue4[56].macCellId = 12
**.ue4[56].masterId = 12
**.ue4[57].macCellId = 12
**.ue4[57].masterId = 12
**.ue4[58].macCellId = 12
**.ue4[58].masterId = 12
**.ue4[59].macCellId = 12
**.ue4[59].masterId = 12
**.ue5[0].macCellId = 6
**.ue5[0].masterId = 6
**.ue5[1].macCellId = 6
**.ue5[1].masterId = 6
**.ue5[2].macCellId = 6
**.ue5[2].masterId = 6
**.ue5[3].macCellId = 6
**.ue5[3].masterId = 6
**.ue5[4].macCellId = 6
**.ue5[4].masterId = 6
**.ue5[5].macCellId = 6
**.ue5[5].masterId = 6
**.ue5[6].macCellId = 6
**.ue5[6].masterId = 6
**.ue5[7].macCellId = 6
**.ue5[7].masterId = 6
**.ue5[8].macCellId = 6
**.ue5[8].masterId = 6
**.ue5[9].macCellId = 6
**.ue5[9].masterId = 6
**.ue5[10].macCellId = 6
**.ue5[10].masterId = 6
**.ue5[11].macCellId = 6
**.ue5[11].masterId = 6
**.ue5[12].macCellId = 6
**.ue5[12].masterId = 6
**.ue5[13].macCellId = 6
**.ue5[13].masterId = 6
**.ue5[14].macCellId = 6
**.ue5[14].masterId = 6
**.ue5[15].macCellId = 6
**.ue5[15].masterId = 6
**.ue5[16].macCellId = 6
**.ue5[16].masterId = 6
**.ue5[17].macCellId = 6
**.ue5[17].masterId = 6
**.ue5[18].macCellId = 6
**.ue5[18].masterId = 6
**.ue5[19].macCellId = 6
**.ue5[19].masterId = 6
**.ue5[20].macCellId = 6
**.ue5[20].masterId = 6
**.ue5[21].macCellId = 6
**.ue5[21].masterId = 6
**.ue5[22].macCellId = 6
**.ue5[22].masterId = 6
**.ue5[23].macCellId = 6
**.ue5[23].masterId = 6
**.ue5[24].macCellId = 13
**.ue5[24].masterId = 13
**.ue5[25].macCellId = 13
**.ue5[25].masterId = 13
**.ue5[26].macCellId = 13
**.ue5[26].masterId = 13
**.ue5[27].macCellId = 13
**.ue5[27].masterId = 13
**.ue5[28].macCellId = 13
**.ue5[28].masterId = 13
**.ue5[29].macCellId = 13
**.ue5[29].masterId = 13
**.ue5[30].macCellId = 13
**.ue5[30].masterId = 13
**.ue5[31].macCellId = 13
**.ue5[31].masterId = 13
**.ue5[32].macCellId = 13
**.ue5[32].masterId = 13
**.ue5[33].macCellId = 13
**.ue5[33].masterId = 13
**.ue5[34].macCellId = 13
**.ue5[34].masterId = 13
**.ue5[35].macCellId = 13
**.ue5[35].masterId = 13
**.ue5[36].macCellId = 13
**.ue5[36].masterId = 13
**.ue5[37].macCellId = 13
**.ue5[37].masterId = 13
**.ue5[38].macCellId = 13
**.ue5[38].masterId = 13
**.ue5[39].macCellId = 13
**.ue5[39].masterId = 13
**.ue5[40].macCellId = 13
**.ue5[40].masterId = 13
**.ue5[41].macCellId = 13
**.ue5[41].masterId = 13
**.ue5[42].macCellId = 13
**.ue5[42].masterId = 13
**.ue5[43].macCellId = 13
**.ue5[43].masterId = 13
**.ue5[44].macCellId = 13
**.ue5[44].masterId = 13
**.ue5[45].macCellId = 13
**.ue5[45].masterId = 13
**.ue5[46].macCellId = 13
**.ue5[46].masterId = 13
**.ue5[47].macCellId = 13
**.ue5[47].masterId = 13
**.ue5[48].macCellId = 13
**.ue5[48].masterId = 13
**.ue5[49].macCellId = 13
**.ue5[49].masterId = 13
**.ue5[50].macCellId = 13
**.ue5[50].masterId = 13
**.ue5[51].macCellId = 13
**.ue5[51].masterId = 13
**.ue5[52].macCellId = 13
**.ue5[52].masterId = 13
**.ue5[53].macCellId = 13
**.ue5[53].masterId = 13
**.ue5[54].macCellId = 13
**.ue5[54].masterId = 13
**.ue5[55].macCellId = 13
**.ue5[55].masterId = 13
**.ue5[56].macCellId = 13
**.ue5[56].masterId = 13
**.ue5[57].macCellId = 13
**.ue5[57].masterId = 13
**.ue5[58].macCellId = 13
**.ue5[58].masterId = 13
**.ue5[59].macCellId = 13
**.ue5[59].masterId = 13
**.ue6[0].macCellId = 7
**.ue6[0].masterId = 7
**.ue6[1].macCellId = 7
**.ue6[1].masterId = 7
**.ue6[2].macCellId = 7
**.ue6[2].masterId = 7
**.ue6[3].macCellId = 7
**.ue6[3].masterId = 7
**.ue6[4].macCellId = 7
**.ue6[4].masterId = 7
**.ue6[5].macCellId = 7
**.ue6[5].masterId = 7
**.ue6[6].macCellId = 7
**.ue6[6].masterId = 7
**.ue6[7].macCellId = 7
**.ue6[7].masterId = 7
**.ue6[8].macCellId = 7
**.ue6[8].masterId = 7
**.ue6[9].macCellId = 7
**.ue6[9].masterId = 7
**.ue6[10].macCellId = 7
**.ue6[10].masterId = 7
**.ue6[11].macCellId = 7
**.ue6[11].masterId = 7
**.ue6[12].macCellId = 7
**.ue6[12].masterId = 7
**.ue6[13].macCellId = 7
**.ue6[13].masterId = 7
**.ue6[14].macCellId = 7
**.ue6[14].masterId = 7
**.ue6[15].macCellId = 7
**.ue6[15].masterId = 7
**.ue6[16].macCellId = 7
**.ue6[16].masterId = 7
**.ue6[17].macCellId = 7
**.ue6[17].masterId = 7
**.ue6[18].macCellId = 7
**.ue6[18].masterId = 7
**.ue6[19].macCellId = 14
**.ue6[19].masterId = 14
**.ue6[20].macCellId = 14
**.ue6[20].masterId = 14
**.ue6[21].macCellId = 14
**.ue6[21].masterId = 14
**.ue6[22].macCellId = 14
**.ue6[22].masterId = 14
**.ue6[23].macCellId = 14
**.ue6[23].masterId = 14
**.ue6[24].macCellId = 14
**.ue6[24].masterId = 14
**.ue6[25].macCellId = 14
**.ue6[25].masterId = 14
**.ue6[26].macCellId = 14
**.ue6[26].masterId = 14
**.ue6[27].macCellId = 14
**.ue6[27].masterId = 14
**.ue6[28].macCellId = 14
**.ue6[28].masterId = 14
**.ue6[29].macCellId = 14
**.ue6[29].masterId = 14
**.ue6[30].macCellId = 14
**.ue6[30].masterId = 14
**.ue6[31].macCellId = 14
**.ue6[31].masterId = 14
**.ue6[32].macCellId = 14
**.ue6[32].masterId = 14
**.ue6[33].macCellId = 14
**.ue6[33].masterId = 14
**.ue6[34].macCellId = 14
**.ue6[34].masterId = 14
**.ue6[35].macCellId = 14
**.ue6[35].masterId = 14
**.ue6[36].macCellId = 14
**.ue6[36].masterId = 14
**.ue6[37].macCellId = 14
**.ue6[37].masterId = 14
**.ue6[38].macCellId = 14
**.ue6[38].masterId = 14
**.ue6[39].macCellId = 14
**.ue6[39].masterId = 14
**.ue6[40].macCellId = 14
**.ue6[40].masterId = 14
**.ue6[41].macCellId = 14
**.ue6[41].masterId = 14
**.ue6[42].macCellId = 14
**.ue6[42].masterId = 14
**.ue6[43].macCellId = 14
**.ue6[43].masterId = 14
**.ue6[44].macCellId = 14
**.ue6[44].masterId = 14
**.ue6[45].macCellId = 14
**.ue6[45].masterId = 14
**.ue6[46].macCellId = 14
**.ue6[46].masterId = 14
**.ue6[47].macCellId = 14
**.ue6[47].masterId = 14
**.ue6[48].macCellId = 14
**.ue6[48].masterId = 14
**.ue6[49].macCellId = 14
**.ue6[49].masterId = 14
**.ue6[50].macCellId = 14
**.ue6[50].masterId = 14
**.ue6[51].macCellId = 14
**.ue6[51].masterId = 14
**.ue6[52].macCellId = 14
**.ue6[52].masterId = 14
**.ue6[53].macCellId = 14
**.ue6[53].masterId = 14
**.ue6[54].macCellId = 14
**.ue6[54].masterId = 14
**.ue6[55].macCellId = 14
**.ue6[55].masterId = 14
**.ue6[56].macCellId = 14
**.ue6[56].masterId = 14
**.ue6[57].macCellId = 14
**.ue6[57].masterId = 14
**.ue6[58].macCellId = 14
**.ue6[58].masterId = 14
**.ue6[59].macCellId = 14
**.ue6[59].masterId = 14

# Scheduler
**.schedulingDisciplineUl = ${sched= "MAXCI", "DRR", "PF"}
**.schedulingDisciplineDl = ${sched}

############### Scenario ###############

# eNodeB
**.eNB0.lteNic.channelModel.scenario = "URBAN_MACROCELL"
**.eNB1.lteNic.channelModel.scenario = "URBAN_MACROCELL"
**.eNB2.lteNic.channelModel.scenario = "URBAN_MACROCELL"
**.eNB3.lteNic.channelModel.scenario = "URBAN_MACROCELL"
**.eNB4.lteNic.channelModel.scenario = "URBAN_MACROCELL"
**.eNB5.lteNic.channelModel.scenario = "URBAN_MACROCELL"
**.eNB6.lteNic.channelModel.scenario = "URBAN_MACROCELL"

# Microcell
**.microCell0.lteNic.channelModel.scenario = "URBAN_MICROCELL"
**.microCell1.lteNic.channelModel.scenario = "URBAN_MICROCELL"
**.microCell2.lteNic.channelModel.scenario = "URBAN_MICROCELL"
**.microCell3.lteNic.channelModel.scenario = "URBAN_MICROCELL"
**.microCell4.lteNic.channelModel.scenario = "URBAN_MICROCELL"
**.microCell5.lteNic.channelModel.scenario = "URBAN_MICROCELL"
**.microCell6.lteNic.channelModel.scenario = "URBAN_MICROCELL"

# UEs
**.ue0[0].lteNic.channelModel.scenario = "URBAN_MACROCELL"
**.ue0[1].lteNic.channelModel.scenario = "URBAN_MACROCELL"
**.ue0[2].lteNic.channelModel.scenario = "URBAN_MACROCELL"
**.ue0[3].lteNic.channelModel.scenario = "URBAN_MACROCELL"
**.ue0[4].lteNic.channelModel.scenario = "URBAN_MACROCELL"
**.ue0[5].lteNic.channelModel.scenario = "URBAN_MACROCELL"
**.ue0[6].lteNic.channelModel.scenario = "URBAN_MACROCELL"
**.ue0[7].lteNic.channelModel.scenario = "URBAN_MACROCELL"
**.ue0[8].lteNic.channelModel.scenario = "URBAN_MACROCELL"
**.ue0[9].lteNic.channelModel.scenario = "URBAN_MACROCELL"
**.ue0[10].lteNic.channelModel.scenario = "URBAN_MACROCELL"
**.ue0[11].lteNic.channelModel.scenario = "URBAN_MACROCELL"
**.ue0[12].lteNic.channelModel.scenario = "URBAN_MACROCELL"
**.ue0[13].lteNic.channelModel.scenario = "URBAN_MACROCELL"
**.ue0[14].lteNic.channelModel.scenario = "URBAN_MACROCELL"
**.ue0[15].lteNic.channelModel.scenario = "URBAN_MACROCELL"
**.ue0[16].lteNic.channelModel.scenario = "URBAN_MACROCELL"
**.ue0[17].lteNic.channelModel.scenario = "URBAN_MACROCELL"
**.ue0[18].lteNic.channelModel.scenario = "URBAN_MACROCELL"
**.ue0[19].lteNic.channelModel.scenario = "URBAN_MACROCELL"
**.ue0[20].lteNic.channelModel.scenario = "URBAN_MACROCELL"
**.ue0[21].lteNic.channelModel.scenario = "URBAN_MACROCELL"
**.ue0[22].lteNic.channelModel.scenario = "URBAN_MICROCELL"
**.ue0[23].lteNic.channelModel.scenario = "URBAN_MICROCELL"
**.ue0[24].lteNic.channelModel.scenario = "URBAN_MICROCELL"
**.ue0[25].lteNic.channelModel.scenario = "URBAN_MICROCELL"
**.ue0[26].lteNic.channelModel.scenario = "URBAN_MICROCELL"
**.ue0[27].lteNic.channelModel.scenario = "URBAN_MICROCELL"
**.ue0[28].lteNic.channelModel.scenario = "URBAN_MICROCELL"
**.ue0[29].lteNic.channelModel.scenario = "URBAN_MICROCELL"
**.ue0[30].lteNic.channelModel.scenario = "URBAN_MICROCELL"
**.ue0[31].lteNic.channelModel.scenario = "URBAN_MICROCELL"
**.ue0[32].lteNic.channelModel.scenario = "URBAN_MICROCELL"
**.ue0[33].lteNic.channelModel.scenario = "URBAN_MICROCELL"
**.ue0[34].lteNic.channelModel.scenario = "URBAN_MICROCELL"
**.ue0[35].lteNic.channelModel.scenario = "URBAN_MICROCELL"
**.ue0[36].lteNic.channelModel.scenario = "URBAN_MICROCELL"
**.ue0[37].lteNic.channelModel.scenario = "URBAN_MICROCELL"
**.ue0[38].lteNic.channelModel.scenario = "URBAN_MICROCELL"
**.ue0[39].lteNic.channelModel.scenario = "URBAN_MICROCELL"
**.ue0[40].lteNic.channelModel.scenario = "URBAN_MICROCELL"
**.ue0[41].lteNic.channelModel.scenario = "URBAN_MICROCELL"
**.ue0[42].lteNic.channelModel.scenario = "URBAN_MICROCELL"
**.ue0[43].lteNic.channelModel.scenario = "URBAN_MICROCELL"
**.ue0[44].lteNic.channelModel.scenario = "URBAN_MICROCELL"
**.ue0[45].lteNic.channelModel.scenario = "URBAN_MICROCELL"
**.ue0[46].lteNic.channelModel.scenario = "URBAN_MICROCELL"
**.ue0[47].lteNic.channelModel.scenario = "URBAN_MICROCELL"
**.ue0[48].lteNic.channelModel.scenario = "URBAN_MICROCELL"
**.ue0[49].lteNic.channelModel.scenario = "URBAN_MICROCELL"
**.ue0[50].lteNic.channelModel.scenario = "URBAN_MICROCELL"
**.ue0[51].lteNic.channelModel.scenario = "URBAN_MICROCELL"
**.ue0[52].lteNic.channelModel.scenario = "URBAN_MICROCELL"
**.ue0[53].lteNic.channelModel.scenario = "URBAN_MICROCELL"
**.ue0[54].lteNic.channelModel.scenario = "URBAN_MICROCELL"
**.ue0[55].lteNic.channelModel.scenario = "URBAN_MICROCELL"
**.ue0[56].lteNic.channelModel.scenario = "URBAN_MICROCELL"
**.ue0[57].lteNic.channelModel.scenario = "URBAN_MICROCELL"
**.ue0[58].lteNic.channelModel.scenario = "URBAN_MICROCELL"
**.ue0[59].lteNic.channelModel.scenario = "URBAN_MICROCELL"
**.ue1[0].lteNic.channelModel.scenario = "URBAN_MACROCELL"
**.ue1[1].lteNic.channelModel.scenario = "URBAN_MACROCELL"
**.ue1[2].lteNic.channelModel.scenario = "URBAN_MACROCELL"
**.ue1[3].lteNic.channelModel.scenario = "URBAN_MACROCELL"
**.ue1[4].lteNic.channelModel.scenario = "URBAN_MACROCELL"
**.ue1[5].lteNic.channelModel.scenario = "URBAN_MACROCELL"
**.ue1[6].lteNic.channelModel.scenario = "URBAN_MACROCELL"
**.ue1[7].lteNic.channelModel.scenario = "URBAN_MACROCELL"
**.ue1[8].lteNic.channelModel.scenario = "URBAN_MACROCELL"
**.ue1[9].lteNic.channelModel.scenario = "URBAN_MACROCELL"
**.ue1[10].lteNic.channelModel.scenario = "URBAN_MACROCELL"
**.ue1[11].lteNic.channelModel.scenario = "URBAN_MACROCELL"
**.ue1[12].lteNic.channelModel.scenario = "URBAN_MACROCELL"
**.ue1[13].lteNic.channelModel.scenario = "URBAN_MACROCELL"
**.ue1[14].lteNic.channelModel.scenario = "URBAN_MACROCELL"
**.ue1[15].lteNic.channelModel.scenario = "URBAN_MACROCELL"
**.ue1[16].lteNic.channelModel.scenario = "URBAN_MACROCELL"
**.ue1[17].lteNic.channelModel.scenario = "URBAN_MACROCELL"
**.ue1[18].lteNic.channelModel.scenario = "URBAN_MACROCELL"
**.ue1[19].lteNic.channelModel.scenario = "URBAN_MACROCELL"
**.ue1[20].lteNic.channelModel.scenario = "URBAN_MACROCELL"
**.ue1[21].lteNic.channelModel.scenario = "URBAN_MICROCELL"
**.ue1[22].lteNic.channelModel.scenario = "URBAN_MICROCELL"
**.ue1[23].lteNic.channelModel.scenario = "URBAN_MICROCELL"
**.ue1[24].lteNic.channelModel.scenario = "URBAN_MICROCELL"
**.ue1[25].lteNic.channelModel.scenario = "URBAN_MICROCELL"
**.ue1[26].lteNic.channelModel.scenario = "URBAN_MICROCELL"
**.ue1[27].lteNic.channelModel.scenario = "URBAN_MICROCELL"
**.ue1[28].lteNic.channelModel.scenario = "URBAN_MICROCELL"
**.ue1[29].lteNic.channelModel.scenario = "URBAN_MICROCELL"
**.ue1[30].lteNic.channelModel.scenario = "URBAN_MICROCELL"
**.ue1[31].lteNic.channelModel.scenario = "URBAN_MICROCELL"
**.ue1[32].lteNic.channelModel.scenario = "URBAN_MICROCELL"
**.ue1[33].lteNic.channelModel.scenario = "URBAN_MICROCELL"
**.ue1[34].lteNic.channelModel.scenario = "URBAN_MICROCELL"
**.ue1[35].lteNic.channelModel.scenario = "URBAN_MICROCELL"
**.ue1[36].lteNic.channelModel.scenario = "URBAN_MICROCELL"
**.ue1[37].lteNic.channelModel.scenario = "URBAN_MICROCELL"